/*--------------------------------*- C++ -*----------------------------------*\
| =========                 |                                                 |
| \\      /  F ield         | OpenFOAM: The Open Source CFD Toolbox           |
|  \\    /   O peration     | Version:  3.0.1                                 |
|   \\  /    A nd           | Web:      www.OpenFOAM.org                      |
|    \\/     M anipulation  |                                                 |
\*---------------------------------------------------------------------------*/
FoamFile
{
    version     2.0;
    format      ascii;
    class       featureEdgeMesh;
    location    "constant/triSurface";
    object      geom.eMesh;
}
// * * * * * * * * * * * * * * * * * * * * * * * * * * * * * * * * * * * * * //


// points:

1724
(
(1.9477038 0 0.1507383)
(1.9477193 0 0.15068959)
(1.9477193 0.1 0.15068959)
(1.9477038 0.1 0.1507383)
(-1.6534904 0 -0.015626851)
(-1.6009438 0 0.029370917)
(-1.6009438 0.1 0.029370917)
(-1.6534904 0.1 -0.015626851)
(-1.101739 0 0.36191374)
(-1.0910648 0 0.36743388)
(-1.0910648 0.1 0.36743388)
(-1.101739 0.1 0.36191374)
(-1.7692859 0 -0.36102745)
(-1.772339 0 -0.35963792)
(-1.772339 0.1 -0.35963792)
(-1.7692859 0.1 -0.36102745)
(1.9204069 0 0.037016112)
(1.920388 0 0.037004326)
(1.920388 0.1 0.037004326)
(1.9204069 0.1 0.037016112)
(1.9482535 0 0.056261051)
(1.9482121 0 0.056175869)
(1.9482121 0.1 0.056175869)
(1.9482535 0.1 0.056261051)
(1.9204069 0 -0.01973589)
(1.9204301 0 -0.019748596)
(1.9204301 0.1 -0.019748596)
(1.9204069 0.1 -0.01973589)
(1.9477863 0 0.055530794)
(1.9476645 0 0.055384196)
(1.9476645 0.1 0.055384196)
(1.9477863 0.1 0.055530794)
(-1.7747434 0 -0.35851353)
(-1.7806625 0 -0.3555249)
(-1.7806625 0.1 -0.3555249)
(-1.7747434 0.1 -0.35851353)
(-1.8317882 0 -0.21087436)
(-1.8293765 0 -0.20679151)
(-1.8293765 0.1 -0.20679151)
(-1.8317882 0.1 -0.21087436)
(-1.8425512 0 -0.30184567)
(-1.8431627 0 -0.30060098)
(-1.8431627 0.1 -0.30060098)
(-1.8425512 0.1 -0.30184567)
(1.9474449 0 0.05514669)
(1.9471873 0 0.054871392)
(1.9471873 0.1 0.054871392)
(1.9474449 0.1 0.05514669)
(-1.370304 0 0.20102832)
(-1.3606839 0 0.20767692)
(-1.3606839 0.1 0.20767692)
(-1.370304 0.1 0.20102832)
(1.9484357 0 -0.039472528)
(1.9484624 0 -0.039573751)
(1.9484624 0.1 -0.039573751)
(1.9484357 0.1 -0.039472528)
(-0.672782 0 0.5077467)
(-0.67154378 0 0.50784057)
(-0.67154378 0.1 0.50784057)
(-0.672782 0.1 0.5077467)
(1.9480214 0 -0.038571317)
(1.9480332 0 -0.038589031)
(1.9480332 0.1 -0.038589031)
(1.9480214 0.1 -0.038571317)
(-1.721828 0 -0.37932119)
(-1.7383499 0 -0.37356666)
(-1.7383499 0.1 -0.37356666)
(-1.721828 0.1 -0.37932119)
(1.9199699 0 0.036452312)
(1.9199642 0 0.036430486)
(1.9199642 0.1 0.036430486)
(1.9199699 0.1 0.036452312)
(1.9280584 0 -0.019877201)
(1.9281976 0 -0.019884141)
(1.9281976 0.1 -0.019884141)
(1.9280584 0.1 -0.019877201)
(1.9485781 0 0.057745725)
(1.9485693 0 0.057568975)
(1.9485693 0.1 0.057568975)
(1.9485781 0.1 0.057745725)
(1.9482744 0 -0.039028134)
(1.9483166 0 -0.039124705)
(1.9483166 0.1 -0.039124705)
(1.9482744 0.1 -0.039028134)
(1.4836074 0 0.48953596)
(1.4853994 0 0.48861358)
(1.4853994 0.1 0.48861358)
(1.4836074 0.1 0.48953596)
(-1.7413064 0 -0.098099582)
(-1.7192233 0 -0.076244704)
(-1.7192233 0.1 -0.076244704)
(-1.7413064 0.1 -0.098099582)
(1.4562032 0 0.50090051)
(1.4580914 0 0.5003497)
(1.4580914 0.1 0.5003497)
(1.4562032 0.1 0.50090051)
(1.9480901 0 -0.038679209)
(1.948103 0 -0.038701132)
(1.948103 0.1 -0.038701132)
(1.9480901 0.1 -0.038679209)
(-1.8338153 0 -0.31537476)
(-1.8345041 0 -0.31450132)
(-1.8345041 0.1 -0.31450132)
(-1.8338153 0.1 -0.31537476)
(-1.8462799 0 -0.29325834)
(-1.8464663 0 -0.29274166)
(-1.8464663 0.1 -0.29274166)
(-1.8462799 0.1 -0.29325834)
(1.9485011 0 0.057037048)
(1.948463 0 0.056854863)
(1.948463 0.1 0.056854863)
(1.9485011 0.1 0.057037048)
(-1.8470803 0 -0.29090431)
(-1.8472494 0 -0.29037911)
(-1.8472494 0.1 -0.29037911)
(-1.8470803 0.1 -0.29090431)
(1.9302779 0 0.037984692)
(1.9301982 0 0.037918244)
(1.9301982 0.1 0.037918244)
(1.9302779 0.1 0.037984692)
(1.9201466 0 -0.019512216)
(1.9201636 0 -0.019532213)
(1.9201636 0.1 -0.019532213)
(1.9201466 0.1 -0.019512216)
(1.4938046 0 0.48388252)
(1.4968423 0 0.4820323)
(1.4968423 0.1 0.4820323)
(1.4938046 0.1 0.48388252)
(-1.8503593 0 -0.27283272)
(-1.8503839 0 -0.27224016)
(-1.8503839 0.1 -0.27224016)
(-1.8503593 0.1 -0.27283272)
(1.9300047 0 -0.020500494)
(1.9300541 0 -0.020537391)
(1.9300541 0.1 -0.020537391)
(1.9300047 0.1 -0.020500494)
(-1.8500564 0 -0.27674437)
(-1.8501117 0 -0.2761659)
(-1.8501117 0.1 -0.2761659)
(-1.8500564 0.1 -0.27674437)
(1.919933 0 0.02774575)
(1.919933 0 0.026439652)
(1.919933 0.1 0.026439652)
(1.919933 0.1 0.02774575)
(-1.5905988 0 0.037795272)
(-1.5564475 0 0.065380745)
(-1.5564475 0.1 0.065380745)
(-1.5905988 0.1 0.037795272)
(1.9467834 0 0.15279442)
(1.9470333 0 0.15233034)
(1.9470333 0.1 0.15233034)
(1.9467834 0.1 0.15279442)
(1.9467608 0 0.15283667)
(1.9467608 0.1 0.15283667)
(1.9201165 0 0.036753319)
(1.9201034 0 0.036734205)
(1.9201034 0.1 0.036734205)
(1.9201165 0.1 0.036753319)
(-1.8458654 0 -0.24147536)
(-1.8453907 0 -0.24006076)
(-1.8453907 0.1 -0.24006076)
(-1.8458654 0.1 -0.24147536)
(1.9202486 0 -0.019619912)
(1.9202688 0 -0.019637199)
(1.9202688 0.1 -0.019637199)
(1.9202486 0.1 -0.019619912)
(-1.5203884 0 0.093406104)
(-1.4966992 0 0.11138576)
(-1.4966992 0.1 0.11138576)
(-1.5203884 0.1 0.093406104)
(1.9296972 0 -0.020299444)
(1.9297769 0 -0.020352984)
(1.9297769 0.1 -0.020352984)
(1.9296972 0.1 -0.020299444)
(-1.8121008 0 -0.33626112)
(-1.8140154 0 -0.33481401)
(-1.8140154 0.1 -0.33481401)
(-1.8121008 0.1 -0.33626112)
(1.92088 0 0.03715324)
(1.9208455 0 0.037145559)
(1.9208455 0.1 0.037145559)
(1.92088 0.1 0.03715324)
(1.9284353 0 -0.019913308)
(1.9286278 0 -0.019941367)
(1.9286278 0.1 -0.019941367)
(1.9284353 0.1 -0.019913308)
(-0.90467852 0 0.45098326)
(-0.90155119 0 0.45214728)
(-0.90155119 0.1 0.45214728)
(-0.90467852 0.1 0.45098326)
(1.9479614 0 -0.038483016)
(1.9479614 0.1 -0.038483016)
(-1.5305367 0 0.085586429)
(-1.5305367 0.1 0.085586429)
(1.9301982 0 -0.020638496)
(1.9302648 0 -0.020694043)
(1.9302648 0.1 -0.020694043)
(1.9301982 0.1 -0.020638496)
(1.9446927 0 0.15556505)
(1.9450586 0 0.1551725)
(1.9450586 0.1 0.1551725)
(1.9446927 0.1 0.15556505)
(-0.84656864 0 0.47123715)
(-0.84362793 0 0.47214156)
(-0.84362793 0.1 0.47214156)
(-0.84656864 0.1 0.47123715)
(-1.7106123 0 -0.06771481)
(-1.7106123 0.1 -0.06771481)
(-1.8159344 0 -0.18605673)
(-1.8113331 0 -0.17944592)
(-1.8113331 0.1 -0.17944592)
(-1.8159344 0.1 -0.18605673)
(-1.8448278 0 -0.23838207)
(-1.8448278 0.1 -0.23838207)
(-1.844301 0 -0.2369455)
(-1.844301 0.1 -0.2369455)
(1.9291897 0 -0.020072743)
(1.9292587 0 -0.020096704)
(1.9292587 0.1 -0.020096704)
(1.9291897 0.1 -0.020072743)
(1.9279631 0 -0.019872451)
(1.9279631 0.1 -0.019872451)
(1.9425902 0 0.15745826)
(1.9434016 0 0.15678729)
(1.9434016 0.1 0.15678729)
(1.9425902 0.1 0.15745826)
(1.920347 0 -0.019697322)
(1.9203655 0 -0.019710176)
(1.9203655 0.1 -0.019710176)
(1.920347 0.1 -0.019697322)
(1.9208261 0 0.03714424)
(1.9208022 0 0.037142638)
(1.9208022 0.1 0.037142638)
(1.9208261 0.1 0.03714424)
(-0.64426357 0 0.50896031)
(-0.64307261 0 0.50897938)
(-0.64307261 0.1 0.50897938)
(-0.64426357 0.1 0.50896031)
(1.4746932 0 0.49387538)
(1.4765221 0 0.49308372)
(1.4765221 0.1 0.49308372)
(1.4746932 0.1 0.49387538)
(-1.8476104 0 -0.2891846)
(-1.8477998 0 -0.28851506)
(-1.8477998 0.1 -0.28851506)
(-1.8476104 0.1 -0.2891846)
(-1.8305511 0 -0.31930947)
(-1.8312927 0 -0.31846428)
(-1.8312927 0.1 -0.31846428)
(-1.8305511 0.1 -0.31930947)
(-1.8322141 0 -0.31735757)
(-1.8329296 0 -0.31649837)
(-1.8329296 0.1 -0.31649837)
(-1.8322141 0.1 -0.31735757)
(1.9407533 0 0.15884131)
(1.9408792 0 0.1587493)
(1.9408792 0.1 0.1587493)
(1.9407533 0.1 0.15884131)
(1.9293131 0 0.16720854)
(1.9293131 0.1 0.16720854)
(1.4274619 0 0.50700516)
(1.4301482 0 0.50664771)
(1.4301482 0.1 0.50664771)
(1.4274619 0.1 0.50700516)
(1.9303818 0 0.03807126)
(1.9303818 0.1 0.03807126)
(1.9485127 0 0.057092231)
(1.9485127 0.1 0.057092231)
(1.9485055 0 -0.039779805)
(1.9485117 0 -0.039808359)
(1.9485117 0.1 -0.039808359)
(1.9485055 0.1 -0.039779805)
(1.5244142 0 0.46302146)
(1.5244142 0.1 0.46302146)
(1.9484559 0 0.056828149)
(1.9484559 0.1 0.056828149)
(1.9298018 0 0.037648592)
(1.9297919 0 0.037642829)
(1.9297919 0.1 0.037642829)
(1.9298018 0.1 0.037648592)
(-1.8498335 0 -0.25917372)
(-1.8496522 0 -0.25788575)
(-1.8496522 0.1 -0.25788575)
(-1.8498335 0.1 -0.25917372)
(1.9296972 0 0.037579291)
(1.9296392 0 0.037548274)
(1.9296392 0.1 0.037548274)
(1.9296972 0.1 0.037579291)
(1.9199355 0 0.036253247)
(1.9199339 0 0.036231481)
(1.9199339 0.1 0.036231481)
(1.9199355 0.1 0.036253247)
(1.919933 0 0.032385711)
(1.919933 0 0.032068521)
(1.919933 0.1 0.032068521)
(1.919933 0.1 0.032385711)
(1.919933 0 0.034050066)
(1.919933 0 0.033896774)
(1.919933 0.1 0.033896774)
(1.919933 0.1 0.034050066)
(-1.8502438 0 -0.26350564)
(-1.8501334 0 -0.26198313)
(-1.8501334 0.1 -0.26198313)
(-1.8502438 0.1 -0.26350564)
(-1.8503344 0 -0.2647534)
(-1.8503344 0.1 -0.2647534)
(1.9262353 0 -0.019873202)
(1.927506 0 -0.019873127)
(1.927506 0.1 -0.019873127)
(1.9262353 0.1 -0.019873202)
(1.9201165 0 -0.019473096)
(1.9201325 0 -0.019493815)
(1.9201325 0.1 -0.019493815)
(1.9201165 0.1 -0.019473096)
(1.9480942 0 0.055964336)
(1.9480807 0 0.055942789)
(1.9480807 0.1 0.055942789)
(1.9480942 0.1 0.055964336)
(1.9478133 0 -0.038284674)
(1.9478306 0 -0.038307264)
(1.9478306 0.1 -0.038307264)
(1.9478133 0.1 -0.038284674)
(1.9479614 0 0.055761375)
(1.9479318 0 0.055721559)
(1.9479318 0.1 0.055721559)
(1.9479614 0.1 0.055761375)
(1.9201034 0 -0.019453982)
(1.9201034 0.1 -0.019453982)
(-1.8504142 0 -0.27151003)
(-1.8504142 0.1 -0.27151003)
(1.9481566 0 -0.038793143)
(1.9481566 0.1 -0.038793143)
(1.9200886 0 -0.01943264)
(1.9200886 0.1 -0.01943264)
(1.928888 0 -0.01999253)
(1.9289116 0 -0.019997891)
(1.9289116 0.1 -0.019997891)
(1.928888 0.1 -0.01999253)
(1.9200519 0 0.036650945)
(1.9200398 0 0.036628664)
(1.9200398 0.1 0.036628664)
(1.9200519 0.1 0.036650945)
(1.511905 0 0.47205898)
(1.513829 0 0.4706611)
(1.513829 0.1 0.4706611)
(1.511905 0.1 0.47205898)
(1.9200097 0 0.036564123)
(1.9200001 0 0.03654132)
(1.9200001 0.1 0.03654132)
(1.9200097 0.1 0.036564123)
(1.9485794 0 -0.040492218)
(1.9485815 0 -0.040549148)
(1.9485815 0.1 -0.040549148)
(1.9485794 0.1 -0.040492218)
(1.9480153 0 0.055840865)
(1.9480153 0.1 0.055840865)
(1.9480295 0 0.055861726)
(1.9480295 0.1 0.055861726)
(1.9199537 0 -0.019105526)
(1.9199582 0 -0.01912741)
(1.9199582 0.1 -0.01912741)
(1.9199537 0.1 -0.019105526)
(1.9205607 0 0.037088178)
(1.9205365 0 0.037079267)
(1.9205365 0.1 0.037079267)
(1.9205607 0.1 0.037088178)
(-1.8498166 0 -0.27873629)
(-1.84991 0 -0.27802956)
(-1.84991 0.1 -0.27802956)
(-1.8498166 0.1 -0.27873629)
(1.9203252 0 -0.019682217)
(1.9203252 0.1 -0.019682217)
(1.9442835 0 0.15597743)
(1.9446621 0 0.15559795)
(1.9446621 0.1 0.15559795)
(1.9442835 0.1 0.15597743)
(1.9442521 0 0.15600885)
(1.9442521 0.1 0.15600885)
(-1.8408402 0 -0.30498523)
(-1.8413846 0 -0.30403683)
(-1.8413846 0.1 -0.30403683)
(-1.8408402 0.1 -0.30498523)
(-1.8489301 0 -0.253436)
(-1.8486547 0 -0.25210685)
(-1.8486547 0.1 -0.25210685)
(-1.8489301 0.1 -0.253436)
(-1.849205 0 -0.25501636)
(-1.849205 0.1 -0.25501636)
(-1.8481286 0 -0.28730714)
(-1.8482705 0 -0.28676894)
(-1.8482705 0.1 -0.28676894)
(-1.8481286 0.1 -0.28730714)
(1.9482064 0 -0.038886521)
(1.9482064 0.1 -0.038886521)
(-1.8197759 0 -0.19157305)
(-1.8197759 0.1 -0.19157305)
(1.9205809 0 0.037095584)
(1.9205809 0.1 0.037095584)
(1.9201636 0 0.036812436)
(1.9201466 0 0.036792438)
(1.9201466 0.1 0.036792438)
(1.9201636 0.1 0.036812436)
(1.9203072 0 -0.019668324)
(1.9203072 0.1 -0.019668324)
(1.919933 0 0.031709373)
(1.919933 0 0.031298432)
(1.919933 0.1 0.031298432)
(1.919933 0.1 0.031709373)
(1.920388 0 -0.019724103)
(1.920388 0.1 -0.019724103)
(1.919933 0 0.030822575)
(1.919933 0.1 0.030822575)
(1.9483969 0 0.05662182)
(1.9483881 0 0.056596316)
(1.9483881 0.1 0.056596316)
(1.9483969 0.1 0.05662182)
(1.9291445 0 -0.020057051)
(1.9291445 0.1 -0.020057051)
(-1.8050587 0 -0.34134662)
(-1.8076323 0 -0.33953518)
(-1.8076323 0.1 -0.33953518)
(-1.8050587 0.1 -0.34134662)
(-1.8029952 0 -0.34270316)
(-1.8029952 0.1 -0.34270316)
(-1.8204812 0 -0.32938376)
(-1.8222281 0 -0.32783905)
(-1.8222281 0.1 -0.32783905)
(-1.8204812 0.1 -0.32938376)
(1.9287932 0 -0.019971032)
(1.9287932 0.1 -0.019971032)
(1.9476645 0 -0.038105931)
(1.9476777 0 -0.038121592)
(1.9476777 0.1 -0.038121592)
(1.9476645 0.1 -0.038105931)
(1.9425259 0 0.15751147)
(1.9425259 0.1 0.15751147)
(1.9199837 0 0.036496934)
(1.9199771 0 0.036475241)
(1.9199771 0.1 0.036475241)
(1.9199837 0.1 0.036496934)
(1.9199537 0 0.036385749)
(1.9199489 0 0.036363058)
(1.9199489 0.1 0.036363058)
(1.9199537 0.1 0.036385749)
(1.9201788 0 -0.01954983)
(1.9201788 0.1 -0.01954983)
(1.9280753 0 0.037158009)
(1.9279631 0 0.037152417)
(1.9279631 0.1 0.037152417)
(1.9280753 0.1 0.037158009)
(-1.6669699 0 -0.027370684)
(-1.6639508 0 -0.0246755)
(-1.6639508 0.1 -0.0246755)
(-1.6669699 0.1 -0.027370684)
(1.9475219 0 0.15123339)
(1.9475219 0.1 0.15123339)
(-1.8331896 0 -0.21335512)
(-1.8331896 0.1 -0.21335512)
(1.9199489 0 -0.019082835)
(1.9199489 0.1 -0.019082835)
(-1.7910177 0 -0.34996238)
(-1.79546 0 -0.3474592)
(-1.79546 0.1 -0.3474592)
(-1.7910177 0.1 -0.34996238)
(1.9294223 0 0.037443146)
(1.9293711 0 0.037420683)
(1.9293711 0.1 0.037420683)
(1.9294223 0.1 0.037443146)
(1.9199369 0 0.036274843)
(1.9199369 0.1 0.036274843)
(1.9483476 0 0.056482766)
(1.9483134 0 0.056395181)
(1.9483134 0.1 0.056395181)
(1.9483476 0.1 0.056482766)
(1.9199922 0 0.036519848)
(1.9199922 0.1 0.036519848)
(1.9289049 0 0.037277568)
(1.9287869 0 0.037251003)
(1.9287869 0.1 0.037251003)
(1.9289049 0.1 0.037277568)
(1.9482121 0 -0.038897414)
(1.9482583 0 -0.03899223)
(1.9482583 0.1 -0.03899223)
(1.9482121 0.1 -0.038897414)
(1.9295903 0 0.03752213)
(1.9295317 0 0.037493564)
(1.9295317 0.1 0.037493564)
(1.9295903 0.1 0.03752213)
(1.9199333 0 0.036208663)
(1.919933 0 0.036187924)
(1.919933 0.1 0.036187924)
(1.9199333 0.1 0.036208663)
(1.929983 0 0.037767287)
(1.929983 0.1 0.037767287)
(-1.8474504 0 -0.2897141)
(-1.8474504 0.1 -0.2897141)
(1.9199455 0 -0.019060975)
(1.9199455 0.1 -0.019060975)
(-1.8468679 0 -0.29156479)
(-1.8468679 0.1 -0.29156479)
(1.9204301 0 0.037028819)
(1.9204301 0.1 0.037028819)
(1.948265 0 0.056284592)
(1.948265 0.1 0.056284592)
(1.9304436 0 -0.020847671)
(1.9305558 0 -0.020949539)
(1.9305558 0.1 -0.020949539)
(1.9304436 0.1 -0.020847671)
(-1.2760884 0 0.26220685)
(-1.2678914 0 0.26725629)
(-1.2678914 0.1 0.26725629)
(-1.2760884 0.1 0.26220685)
(1.947893 0 0.15013593)
(1.9480319 0 0.14962558)
(1.9480319 0.1 0.14962558)
(1.947893 0.1 0.15013593)
(1.9478793 0 0.15018609)
(1.9478793 0.1 0.15018609)
(-1.7982022 0 -0.34576786)
(-1.8003333 0 -0.34445402)
(-1.8003333 0.1 -0.34445402)
(-1.7982022 0.1 -0.34576786)
(-0.70722622 0 0.50408959)
(-0.7046324 0 0.50445771)
(-0.7046324 0.1 0.50445771)
(-0.70722622 0.1 0.50408959)
(1.920347 0 0.036977544)
(1.9203252 0 0.036962442)
(1.9203252 0.1 0.036962442)
(1.920347 0.1 0.036977544)
(-0.68263382 0 0.50692439)
(-0.68263382 0.1 0.50692439)
(1.9481552 0 0.056069087)
(1.9481423 0 0.056046866)
(1.9481423 0.1 0.056046866)
(1.9481552 0.1 0.056069087)
(1.9205166 0 -0.019790543)
(1.9205365 0 -0.019799046)
(1.9205365 0.1 -0.019799046)
(1.9205166 0.1 -0.019790543)
(1.9481725 0 0.14900605)
(1.9482719 0 0.14848743)
(1.9482719 0.1 0.14848743)
(1.9481725 0.1 0.14900605)
(1.9483618 0 0.1479139)
(1.9483738 0 0.14780462)
(1.9483738 0.1 0.14780462)
(1.9483618 0.1 0.1479139)
(1.9199837 0 -0.019216711)
(1.9199922 0 -0.019239625)
(1.9199922 0.1 -0.019239625)
(1.9199837 0.1 -0.019216711)
(1.9199771 0 -0.019195018)
(1.9199771 0.1 -0.019195018)
(1.9202319 0 0.036884274)
(1.9202127 0 0.036866002)
(1.9202127 0.1 0.036866002)
(1.9202319 0.1 0.036884274)
(1.9290287 0 -0.020021768)
(1.9290748 0 -0.020035801)
(1.9290748 0.1 -0.020035801)
(1.9290287 0.1 -0.020021768)
(1.9289351 0 -0.020004103)
(1.9289351 0.1 -0.020004103)
(-0.81858754 0 0.47977558)
(-0.79589224 0 0.48602733)
(-0.79589224 0.1 0.48602733)
(-0.81858754 0.1 0.47977558)
(-1.8489608 0 -0.28376639)
(-1.849103 0 -0.28307813)
(-1.849103 0.1 -0.28307813)
(-1.8489608 0.1 -0.28376639)
(-1.8488468 0 -0.28431743)
(-1.8488468 0.1 -0.28431743)
(-0.65456742 0 0.50871897)
(-0.65456742 0.1 0.50871897)
(1.4205565 0 0.50779092)
(1.4258419 0 0.507213)
(1.4258419 0.1 0.507213)
(1.4205565 0.1 0.50779092)
(1.919933 0 -0.018905206)
(1.9199334 0 -0.018929746)
(1.9199334 0.1 -0.018929746)
(1.919933 0.1 -0.018905206)
(1.4672208 0 0.49708346)
(1.4672208 0.1 0.49708346)
(1.9204926 0 0.037060577)
(1.920473 0 0.037050977)
(1.920473 0.1 0.037050977)
(1.9204926 0.1 0.037060577)
(1.9293029 0 -0.020114055)
(1.9293029 0.1 -0.020114055)
(1.9204495 0 0.037039518)
(1.9204495 0.1 0.037039518)
(-1.850438 0 -0.26748484)
(-1.8503914 0 -0.26625681)
(-1.8503914 0.1 -0.26625681)
(-1.850438 0.1 -0.26748484)
(1.9305558 0 0.038229201)
(1.930456 0 0.038138624)
(1.930456 0.1 0.038138624)
(1.9305558 0.1 0.038229201)
(1.4102634 0 0.50850528)
(1.4121256 0 0.50843132)
(1.4121256 0.1 0.50843132)
(1.4102634 0.1 0.50850528)
(1.9199419 0 0.036318745)
(1.9199394 0 0.036296982)
(1.9199394 0.1 0.036296982)
(1.9199419 0.1 0.036318745)
(1.948586 0 0.081802808)
(1.948586 0 0.058243185)
(1.948586 0.1 0.058243185)
(1.948586 0.1 0.081802808)
(1.948586 0 0.1434153)
(1.948586 0.1 0.1434153)
(-1.8497413 0 -0.27930549)
(-1.8497413 0.1 -0.27930549)
(1.9202319 0 -0.019604051)
(1.9202319 0.1 -0.019604051)
(1.941485 0 -0.031887151)
(1.9471873 0 -0.03758673)
(1.9471873 0.1 -0.03758673)
(1.941485 0.1 -0.031887151)
(1.9323041 0 0.03998382)
(1.9323041 0.1 0.03998382)
(-1.747577 0 -0.37012133)
(-1.7526802 0 -0.36815557)
(-1.7526802 0.1 -0.36815557)
(-1.747577 0.1 -0.37012133)
(1.414024 0 0.50829101)
(1.414024 0.1 0.50829101)
(1.9482803 0 0.14843382)
(1.9482803 0.1 0.14843382)
(-1.2313612 0 0.28946576)
(-1.2313612 0.1 0.28946576)
(1.389748 0 0.50899243)
(1.3926872 0 0.50898492)
(1.3926872 0.1 0.50898492)
(1.389748 0.1 0.50899243)
(1.9201969 0 0.036849234)
(1.9201788 0 0.036830053)
(1.9201788 0.1 0.036830053)
(1.9201969 0.1 0.036849234)
(-1.8420378 0 -0.30280977)
(-1.8420378 0.1 -0.30280977)
(1.9296315 0 -0.020264316)
(1.9296315 0.1 -0.020264316)
(1.9485824 0 -0.040660035)
(1.948586 0 -0.040967971)
(1.948586 0.1 -0.040967971)
(1.9485824 0.1 -0.040660035)
(1.9454392 0 0.15473266)
(1.9454679 0 0.1546967)
(1.9454679 0.1 0.1546967)
(1.9454392 0.1 0.15473266)
(1.9450884 0 0.15513808)
(1.9450884 0.1 0.15513808)
(1.9199394 0 -0.019016761)
(1.9199419 0 -0.019038523)
(1.9199419 0.1 -0.019038523)
(1.9199394 0.1 -0.019016761)
(1.6440945 0 -0.58762062)
(1.6439197 0 -0.5877552)
(1.6439197 0.1 -0.5877552)
(1.6440945 0.1 -0.58762062)
(1.9458016 0 0.15427877)
(1.945829 0 0.15424125)
(1.945829 0.1 0.15424125)
(1.9458016 0.1 0.15427877)
(-1.8270464 0 -0.32312196)
(-1.8278382 0 -0.3223041)
(-1.8278382 0.1 -0.3223041)
(-1.8270464 0.1 -0.32312196)
(-1.0051167 0 -0.59608245)
(-1.006103 0 -0.59598398)
(-1.006103 0.1 -0.59598398)
(-1.0051167 0.1 -0.59608245)
(1.948264 0 -0.039004128)
(1.948264 0.1 -0.039004128)
(-1.8463693 0 -0.24313419)
(-1.8463693 0.1 -0.24313419)
(-1.1526705 0 -0.48675874)
(-1.1528027 0 -0.48665825)
(-1.1528027 0.1 -0.48665825)
(-1.1526705 0.1 -0.48675874)
(1.919933 0 0.030263856)
(1.919933 0.1 0.030263856)
(-1.0380538 0 0.3936294)
(-1.0380538 0.1 0.3936294)
(1.929311 0 0.03739712)
(1.9292587 0 0.037376605)
(1.9292587 0.1 0.037376605)
(1.929311 0.1 0.03739712)
(-1.0078197 0 -0.59573478)
(-1.0093038 0 -0.59545845)
(-1.0093038 0.1 -0.59545845)
(-1.0078197 0.1 -0.59573478)
(1.9275918 0 -0.019874064)
(1.9275918 0.1 -0.019874064)
(1.9200097 0 -0.0192839)
(1.9200187 0 -0.019305069)
(1.9200187 0.1 -0.019305069)
(1.9200097 0.1 -0.0192839)
(1.9446621 0 -0.1382914)
(1.9445405 0 -0.13841324)
(1.9445405 0.1 -0.13841324)
(1.9446621 0.1 -0.1382914)
(-1.8484366 0 -0.28609028)
(-1.8485693 0 -0.2855477)
(-1.8485693 0.1 -0.2855477)
(-1.8484366 0.1 -0.28609028)
(-1.8295951 0 -0.32039943)
(-1.8295951 0.1 -0.32039943)
(1.8708428 0 -0.19885223)
(1.8697706 0 -0.20052128)
(1.8697706 0.1 -0.20052128)
(1.8708428 0.1 -0.19885223)
(-1.8410383 0 -0.22884913)
(-1.8396091 0 -0.22581951)
(-1.8396091 0.1 -0.22581951)
(-1.8410383 0.1 -0.22884913)
(1.948122 0 -0.13192995)
(1.9480319 0 -0.13232099)
(1.9480319 0.1 -0.13232099)
(1.948122 0.1 -0.13192995)
(1.4653608 0 0.49775648)
(1.4653608 0.1 0.49775648)
(1.9472811 0 -0.1345062)
(1.9472058 0 -0.13466395)
(1.9472058 0.1 -0.13466395)
(1.9472811 0.1 -0.1345062)
(-1.8466902 0 -0.29208571)
(-1.8466902 0.1 -0.29208571)
(-0.96401757 0 0.42721218)
(-0.96084392 0 0.42848521)
(-0.96084392 0.1 0.42848521)
(-0.96401757 0.1 0.42721218)
(-1.1595905 0 -0.4821147)
(-1.1603034 0 -0.48168033)
(-1.1603034 0.1 -0.48168033)
(-1.1595905 0.1 -0.4821147)
(1.4383938 0 0.50532013)
(1.4397441 0 0.50506276)
(1.4397441 0.1 0.50506276)
(1.4383938 0.1 0.50532013)
(1.919933 0 0.024696577)
(1.919933 0 0.022247497)
(1.919933 0.1 0.022247497)
(1.919933 0.1 0.024696577)
(-1.7662872 0 -0.36240372)
(-1.7662872 0.1 -0.36240372)
(1.9482 0 0.056152984)
(1.9482 0.1 0.056152984)
(-1.1629373 0 -0.4802044)
(-1.1646575 0 -0.47932303)
(-1.1646575 0.1 -0.47932303)
(-1.1629373 0.1 -0.4802044)
(1.4585998 0 0.50018501)
(1.4585998 0.1 0.50018501)
(1.8181736 0 -0.28796238)
(1.7842124 0 -0.3461673)
(1.7842124 0.1 -0.3461673)
(1.8181736 0.1 -0.28796238)
(-1.8460448 0 -0.29390982)
(-1.8460448 0.1 -0.29390982)
(-1.2059261 0 -0.46988329)
(-1.3129442 0 -0.45975289)
(-1.3129442 0.1 -0.45975289)
(-1.2059261 0.1 -0.46988329)
(1.9485474 0 0.057331186)
(1.9485391 0 0.05727452)
(1.9485391 0.1 0.05727452)
(1.9485474 0.1 0.057331186)
(1.9208261 0 -0.019864019)
(1.9208455 0 -0.019865338)
(1.9208455 0.1 -0.019865338)
(1.9208261 0.1 -0.019864019)
(1.6481049 0 -0.58395666)
(1.6480533 0 -0.58400893)
(1.6480533 0.1 -0.58400893)
(1.6481049 0.1 -0.58395666)
(1.9206215 0 0.037117358)
(1.9206215 0.1 0.037117358)
(1.9206661 0 0.037129186)
(1.9206661 0.1 0.037129186)
(1.9478793 0 -0.1328813)
(1.9478254 0 -0.1330511)
(1.9478254 0.1 -0.1330511)
(1.9478793 0.1 -0.1328813)
(1.9199699 0 -0.019172089)
(1.9199699 0.1 -0.019172089)
(1.9199642 0 -0.019150263)
(1.9199642 0.1 -0.019150263)
(-1.0196683 0 -0.59184164)
(-1.0209336 0 -0.59117645)
(-1.0209336 0.1 -0.59117645)
(-1.0196683 0.1 -0.59184164)
(1.9298018 0 -0.020367499)
(1.9298018 0.1 -0.020367499)
(-1.8494323 0 -0.28126967)
(-1.8495505 0 -0.28057221)
(-1.8495505 0.1 -0.28057221)
(-1.8494323 0.1 -0.28126967)
(1.6505321 0 -0.58116317)
(1.6498917 0 -0.58195662)
(1.6498917 0.1 -0.58195662)
(1.6505321 0.1 -0.58116317)
(1.919933 0 0.035772551)
(1.919933 0 0.034175709)
(1.919933 0.1 0.034175709)
(1.919933 0.1 0.035772551)
(1.9479848 0 -0.13249399)
(1.9479848 0.1 -0.13249399)
(-0.79302162 0 0.4868063)
(-0.75835127 0 0.49500456)
(-0.75835127 0.1 0.49500456)
(-0.79302162 0.1 0.4868063)
(-1.1479055 0 -0.49052253)
(-1.150683 0 -0.48830426)
(-1.150683 0.1 -0.48830426)
(-1.1479055 0.1 -0.49052253)
(1.9199582 0 0.036407631)
(1.9199582 0.1 0.036407631)
(1.9461437 0 0.1538112)
(1.9461699 0 0.15377213)
(1.9461699 0.1 0.15377213)
(1.9461437 0.1 0.1538112)
(1.6241822 0 -0.5960204)
(1.6236451 0 -0.59608161)
(1.6236451 0.1 -0.59608161)
(1.6241822 0.1 -0.5960204)
(-1.8071389 0 -0.17383245)
(-1.8019689 0 -0.16690949)
(-1.8019689 0.1 -0.16690949)
(-1.8071389 0.1 -0.17383245)
(1.6359098 0 -0.59265286)
(1.6349689 0 -0.59306979)
(1.6349689 0.1 -0.59306979)
(1.6359098 0.1 -0.59265286)
(1.9478171 0 0.055567835)
(1.9478171 0.1 0.055567835)
(1.6460643 0 -0.58594286)
(1.6451485 0 -0.58675158)
(1.6451485 0.1 -0.58675158)
(1.6460643 0.1 -0.58594286)
(1.9200765 0 -0.01941289)
(1.9200765 0.1 -0.01941289)
(1.9470333 0 -0.13502486)
(1.9470333 0.1 -0.13502486)
(1.9483573 0 0.056507614)
(1.9483573 0.1 0.056507614)
(1.622704 0 -0.59616947)
(1.622704 0.1 -0.59616947)
(1.919933 0 0.018545685)
(1.919933 0.1 0.018545685)
(1.6489873 0 -0.58300167)
(1.6489873 0.1 -0.58300167)
(-1.8379383 0 -0.22227597)
(-1.8362986 0 -0.21914396)
(-1.8362986 0.1 -0.21914396)
(-1.8379383 0.1 -0.22227597)
(-0.98581505 0 -0.59635991)
(-0.99415398 0 -0.59635991)
(-0.99415398 0.1 -0.59635991)
(-0.98581505 0.1 -0.59635991)
(1.920063 0 -0.019391028)
(1.920063 0.1 -0.019391028)
(1.9200519 0 -0.019370722)
(1.9200519 0.1 -0.019370722)
(-1.8368262 0 -0.31131512)
(-1.8374594 0 -0.31041244)
(-1.8374594 0.1 -0.31041244)
(-1.8368262 0.1 -0.31131512)
(1.8695235 0 -0.20092952)
(1.8687974 0 -0.20211259)
(1.8687974 0.1 -0.20211259)
(1.8695235 0.1 -0.20092952)
(1.9299541 0 -0.020467293)
(1.9299541 0.1 -0.020467293)
(-1.8360145 0 -0.31247279)
(-1.8360145 0.1 -0.31247279)
(1.6622094 0 -0.5611791)
(1.6579123 0 -0.56891221)
(1.6579123 0.1 -0.56891221)
(1.6622094 0.1 -0.5611791)
(1.9484321 0 0.056737646)
(1.9484321 0.1 0.056737646)
(1.6190264 0 -0.59635991)
(1.6148543 0 -0.59635991)
(1.6148543 0.1 -0.59635991)
(1.6190264 0.1 -0.59635991)
(-0.72522348 0 0.50138777)
(-0.72522348 0.1 0.50138777)
(1.927506 0 0.037153706)
(1.9222698 0 0.037153706)
(1.9222698 0.1 0.037153706)
(1.927506 0.1 0.037153706)
(1.9200886 0 0.036712863)
(1.9200765 0 0.036693111)
(1.9200765 0.1 0.036693111)
(1.9200886 0.1 0.036712863)
(1.2302055 0 -0.59635991)
(1.165449 0 -0.59635991)
(1.165449 0.1 -0.59635991)
(1.2302055 0.1 -0.59635991)
(1.9308827 0 0.038555555)
(1.9308827 0.1 0.038555555)
(1.9474363 0 -0.13413744)
(1.9474363 0.1 -0.13413744)
(-1.785321 0 -0.35317406)
(-1.785321 0.1 -0.35317406)
(-0.75556719 0 0.49565056)
(-0.74662894 0 0.49747553)
(-0.74662894 0.1 0.49747553)
(-0.75556719 0.1 0.49565056)
(1.9483336 0 -0.13078903)
(1.9482719 0 -0.13118321)
(1.9482719 0.1 -0.13118321)
(1.9483336 0.1 -0.13078903)
(1.626076 0 -0.59572047)
(1.6254938 0 -0.59582621)
(1.6254938 0.1 -0.59582621)
(1.626076 0.1 -0.59572047)
(1.9308488 0 0.03852405)
(1.9308488 0.1 0.03852405)
(-1.841782 0 -0.23058802)
(-1.841782 0.1 -0.23058802)
(1.6321112 0 -0.59418249)
(1.6310031 0 -0.59454316)
(1.6310031 0.1 -0.59454316)
(1.6321112 0.1 -0.59418249)
(-1.1577331 0 -0.48325065)
(-1.1577331 0.1 -0.48325065)
(1.6362517 0 -0.59248745)
(1.6362517 0.1 -0.59248745)
(1.9276013 0 0.037154745)
(1.9276013 0.1 0.037154745)
(1.948586 0 -0.12611271)
(1.9485765 0 -0.12682001)
(1.9485765 0.1 -0.12682001)
(1.948586 0.1 -0.12611271)
(-0.97862548 0 -0.59635991)
(-0.98139727 0 -0.59635991)
(-0.98139727 0.1 -0.59635991)
(-0.97862548 0.1 -0.59635991)
(-1.8502253 0 -0.27486673)
(-1.8502812 0 -0.27414599)
(-1.8502812 0.1 -0.27414599)
(-1.8502253 0.1 -0.27486673)
(-1.8501801 0 -0.27544984)
(-1.8501801 0.1 -0.27544984)
(1.6461692 0 -0.58585)
(1.6461692 0.1 -0.58585)
(1.9464639 0 0.15333039)
(1.9464884 0 0.15328974)
(1.9464884 0.1 0.15328974)
(1.9464639 0.1 0.15333039)
(-0.99583811 0 -0.59635991)
(-0.99583811 0.1 -0.59635991)
(-1.8395714 0 -0.30712771)
(-1.8401461 0 -0.30619478)
(-1.8401461 0.1 -0.30619478)
(-1.8395714 0.1 -0.30712771)
(1.6536573 0 -0.57659841)
(1.6530167 0 -0.57765144)
(1.6530167 0.1 -0.57765144)
(1.6536573 0.1 -0.57659841)
(-1.6877351 0 -0.3899045)
(-1.7188241 0 -0.38033739)
(-1.7188241 0.1 -0.38033739)
(-1.6877351 0.1 -0.3899045)
(-1.676608 0 -0.39333329)
(-1.676608 0.1 -0.39333329)
(-1.1768752 0 -0.47435689)
(-1.1782982 0 -0.47394112)
(-1.1782982 0.1 -0.47394112)
(-1.1768752 0.1 -0.47435689)
(1.9485819 0 0.057896201)
(1.948581 0 0.057803456)
(1.948581 0.1 0.057803456)
(1.9485819 0.1 0.057896201)
(1.6323428 0 -0.59409845)
(1.6323428 0.1 -0.59409845)
(-1.8260237 0 -0.32417873)
(-1.8260237 0.1 -0.32417873)
(1.6218389 0 -0.59623957)
(1.6213957 0 -0.59627587)
(1.6213957 0.1 -0.59627587)
(1.6218389 0.1 -0.59623957)
(-1.8238249 0 -0.19788234)
(-1.8238249 0.1 -0.19788234)
(1.9442521 0 -0.13870217)
(1.9442521 0.1 -0.13870217)
(1.6191015 0 -0.59635735)
(1.6191015 0.1 -0.59635735)
(1.383548 0 0.50900066)
(1.383548 0.1 0.50900066)
(1.9463676 0 -0.13616928)
(1.9461437 0 -0.13650523)
(1.9461437 0.1 -0.13650523)
(1.9463676 0.1 -0.13616928)
(-0.84963518 0 0.47019154)
(-0.84963518 0.1 0.47019154)
(1.9286621 0 0.037227556)
(1.9284353 0 0.037194509)
(1.9284353 0.1 0.037194509)
(1.9286621 0.1 0.037227556)
(1.6498798 0 -0.58197051)
(1.6490175 0 -0.58296895)
(1.6490175 0.1 -0.58296895)
(1.6498798 0.1 -0.58197051)
(-1.8272976 0 -0.20329081)
(-1.8272976 0.1 -0.20329081)
(-1.0119556 0 -0.5948143)
(-1.0128933 0 -0.59455091)
(-1.0128933 0.1 -0.59455091)
(-1.0119556 0.1 -0.5948143)
(1.9205809 0 -0.019815363)
(1.9206215 0 -0.019837134)
(1.9206215 0.1 -0.019837134)
(1.9205809 0.1 -0.019815363)
(1.9206661 0 -0.019848963)
(1.9206661 0.1 -0.019848963)
(1.9474726 0 -0.037896752)
(1.9475117 0 -0.037936922)
(1.9475117 0.1 -0.037936922)
(1.9474726 0.1 -0.037896752)
(-1.8436785 0 -0.23524684)
(-1.8430986 0 -0.23378803)
(-1.8430986 0.1 -0.23378803)
(-1.8436785 0.1 -0.23524684)
(1.722349 0 -0.45402807)
(1.7213863 0 -0.45571172)
(1.7213863 0.1 -0.45571172)
(1.722349 0.1 -0.45402807)
(-1.0254166 0 -0.58831334)
(-1.026024 0 -0.58784997)
(-1.026024 0.1 -0.58784997)
(-1.0254166 0.1 -0.58831334)
(1.9473003 0 0.15176599)
(1.9475046 0 0.15128055)
(1.9475046 0.1 0.15128055)
(1.9473003 0.1 0.15176599)
(-1.3218783 0 -0.4587571)
(-1.4065615 0 -0.44829002)
(-1.4065615 0.1 -0.44829002)
(-1.3218783 0.1 -0.4587571)
(1.9485469 0 -0.040048692)
(1.9485508 0 -0.040090911)
(1.9485508 0.1 -0.040090911)
(1.9485469 0.1 -0.040048692)
(-1.021438 0 -0.59088492)
(-1.0224555 0 -0.59029371)
(-1.0224555 0.1 -0.59029371)
(-1.021438 0.1 -0.59088492)
(1.9308523 0 -0.02124704)
(1.9308523 0.1 -0.02124704)
(-1.824368 0 -0.32577497)
(-1.824368 0.1 -0.32577497)
(-1.1740044 0 -0.47531307)
(-1.1754824 0 -0.47481987)
(-1.1754824 0.1 -0.47481987)
(-1.1740044 0.1 -0.47531307)
(1.9207826 0 0.037140388)
(1.9207826 0.1 0.037140388)
(-1.1915438 0 -0.47125)
(-1.1932913 0 -0.47108614)
(-1.1932913 0.1 -0.47108614)
(-1.1915438 0.1 -0.47125)
(1.9284241 0 0.037193477)
(1.9281976 0 0.037164103)
(1.9281976 0.1 0.037164103)
(1.9284241 0.1 0.037193477)
(-1.1898104 0 -0.47148222)