/*--------------------------------*- C++ -*----------------------------------*\
| =========                 |                                                 |
| \\      /  F ield         | OpenFOAM: The Open Source CFD Toolbox           |
|  \\    /   O peration     | Version:  3.0.1                                 |
|   \\  /    A nd           | Web:      www.OpenFOAM.org                      |
|    \\/     M anipulation  |                                                 |
\*---------------------------------------------------------------------------*/
FoamFile
{
    version     2.0;
    format      ascii;
    class       featureEdgeMesh;
    location    "constant/triSurface";
    object      geom.eMesh;
}
// * * * * * * * * * * * * * * * * * * * * * * * * * * * * * * * * * * * * * //


// points:

291
(
(-10 -0.53251028 -0.72136003)
(-10 0.53251028 -0.72136003)
(25 0.53251028 -0.72136003)
(25 -0.53251028 -0.72136003)
(1.5336708 0.45583779 -0.72136003)
(1.5518936 0.44444859 -0.72136003)
(1.4905777 0.47821027 -0.72136003)
(1.5177226 0.46514571 -0.72136003)
(1.4621328 0.48857561 -0.72136003)
(1.4326506 0.49609828 -0.72136003)
(1.3721271 0.5021677 -0.72136003)
(1.402414 0.50065923 -0.72136003)
(1.5755706 0.40586355 -0.72135997)
(1.5757697 0.4013702 -0.72136003)
(1.5744579 0.41283989 -0.72135997)
(1.5723882 0.41959441 -0.72135997)
(1.5694015 0.42599648 -0.72136003)
(1.5655555 0.43192232 -0.72136003)
(1.5609246 0.43725732 -0.72136003)
(1.5555984 0.44189826 -0.72136003)
(1.5757697 -8.0087051e-17 -0.72136003)
(1.5757697 -0.39703062 -0.72136003)
(1.5609246 -0.43291771 -0.72135997)
(1.5555984 -0.43755868 -0.72135997)
(1.5744579 -0.40850028 -0.72136003)
(1.5723882 -0.4152548 -0.72136003)
(1.5755706 -0.40152395 -0.72136003)
(1.5694015 -0.42165691 -0.72135997)
(1.5655555 -0.42758274 -0.72135997)
(1.5518936 -0.44010898 -0.72136003)
(1.5336708 -0.45149818 -0.72136003)
(1.4205276 -0.49396071 -0.72136003)
(1.3905843 -0.49726874 -0.72135997)
(1.4791303 -0.47842854 -0.72136003)
(1.4501424 -0.48767477 -0.72136003)
(1.5071881 -0.46627089 -0.72136003)
(1.3721271 -0.4978281 -0.72136003)
(-0.51027632 0.5021677 -0.72136003)
(5.5751814e-17 0.5021677 -0.72136003)
(-0.55135226 0.49938723 -0.72136003)
(-0.53084171 0.50147313 -0.72136003)
(-5.5270021e-17 -0.4978281 -0.72136003)
(-0.51027632 -0.4978281 -0.72136003)
(-0.53084171 -0.49713352 -0.72136003)
(-0.55135226 -0.49504766 -0.72136003)
(-0.57848144 -0.48247784 -0.72136003)
(-0.58180434 -0.47920012 -0.72136003)
(-0.57345033 -0.48645893 -0.72136003)
(-0.56795752 -0.48977414 -0.72136003)
(-0.56209069 -0.49237058 -0.72136003)
(-0.55594337 -0.49420685 -0.72136003)
(-0.99503028 -0.032319285 -0.72136003)
(-0.99710172 0.034274116 -0.72136003)
(-0.99503028 0.036658887 -0.72136003)
(-1.0011126 0.028604366 -0.72136003)
(-1.0043128 0.022440545 -0.72136003)
(-1.0066422 0.015897853 -0.72136003)
(-1.0080575 0.0090985782 -0.72135997)
(-1.0085323 0.0021698009 -0.72135997)
(-1.0080575 -0.0047589759 -0.72136003)
(-1.0084859 -8.0087051e-17 -0.72136003)
(-0.99710172 -0.029934512 -0.72135997)
(-1.0011126 -0.024264764 -0.72135997)
(-1.0043128 -0.018100943 -0.72136003)
(-1.0066422 -0.011558251 -0.72136003)
(-0.58180434 0.48353973 -0.72136003)
(-0.57848144 0.48681745 -0.72136003)
(-0.57345033 0.49079853 -0.72136003)
(-0.56795752 0.49411374 -0.72136003)
(-0.56209069 0.49671018 -0.72136003)
(-0.55594337 0.49854645 -0.72136003)
(-1.0889292e-16 -0.53251028 -0.72136003)
(-10 -9.5554674e-17 -0.72136003)
(6.4362149e-17 0.53251028 -0.72136003)
(25 -9.5554674e-17 -0.72136003)
(-10 0.65766126 0.60943341)
(-10 0.73415589 0.51472574)
(-10 0.56904221 0.69290578)
(-10 0.46993241 0.76360393)
(-10 -0.2336387 0.86564451)
(-10 -0.1142206 0.88931495)
(-10 -0.85013503 -0.28495231)
(-10 -0.88089967 -0.16716219)
(-10 0.80043328 -0.40402234)
(-10 0.74203604 -0.50329906)
(-10 0.3621591 0.82022446)
(-10 -0.34874952 0.82601523)
(-10 -0.55767918 0.70208359)
(-10 -0.45743087 0.77115786)
(-10 -0.80369759 -0.39748913)
(-10 0.845622 -0.29807857)
(-10 0.89362174 -0.073264167)
(-10 0.87685663 -0.18721606)
(-10 0.7971158 0.41052869)
(-10 0.84538037 0.29876328)
(-10 0.24770913 0.8617236)
(-10 -0.87498671 0.19576953)
(-10 -0.84040129 0.31249496)
(-10 -0.74244338 -0.50269794)
(-10 -0.58025414 -0.6835441)
(-10 -0.66750169 -0.59863919)
(-10 0.87805969 0.18148994)
(-10 0.12869245 0.88733625)
(-10 -0.64764625 0.62006593)
(-10 -0.79032248 0.42345932)
(-10 -0.72567356 0.52661687)
(-10 -0.89344108 0.075434953)
(-10 0.67139405 -0.59427053)
(-10 -0.89542425 -0.046290319)
(-10 0.58967298 -0.6754356)
(-10 0.0073032491 0.89659023)
(-10 0.89661998 -4.087902e-16)
(-10 0.8945514 0.060870714)
(25 0.46993241 0.76360393)
(25 0.3621591 0.82022446)
(25 0.56904221 0.69290578)
(25 0.65766126 0.60943341)
(25 0.73415589 0.51472574)
(25 0.87805969 0.18148994)
(25 0.84538037 0.29876328)
(25 0.80043328 -0.40402234)
(25 0.845622 -0.29807857)
(25 0.24770913 0.8617236)
(25 0.7971158 0.41052869)
(25 0.74203604 -0.50329906)
(25 -0.80369759 -0.39748913)
(25 -0.74244338 -0.50269794)
(25 -0.89344108 0.075434953)
(25 -0.89542425 -0.046290319)
(25 -0.84040129 0.31249496)
(25 -0.87498671 0.19576953)
(25 -0.64764625 0.62006593)
(25 -0.72567356 0.52661687)
(25 -0.45743087 0.77115786)
(25 -0.55767918 0.70208359)
(25 0.87685663 -0.18721606)
(25 0.58967298 -0.6754356)
(25 0.67139405 -0.59427053)
(25 -0.66750169 -0.59863919)
(25 -0.88089967 -0.16716219)
(25 -0.85013503 -0.28495231)
(25 -0.2336387 0.86564451)
(25 -0.34874952 0.82601523)
(25 0.12869245 0.88733625)
(25 -0.79032248 0.42345932)
(25 -0.1142206 0.88931495)
(25 0.8945514 0.060870714)
(25 0.0073032491 0.89659023)
(25 0.89661998 1.0980428e-16)
(25 0.89362174 -0.073264167)
(25 -0.58025414 -0.6835441)
(1.5744437 0.41290125 -0.096007854)
(1.5739133 0.41497737 -0.089965776)
(1.5723445 0.41970852 -0.075647868)
(1.5693421 0.42610344 -0.054777596)
(1.5755608 0.40597254 -0.11531761)
(1.5757697 0.40137026 -0.12755488)
(1.5757697 -0.14375934 -0.37666783)
(1.5757697 -0.087021023 -0.3929441)
(1.5757697 -0.19771375 -0.35272884)
(1.5757697 0.1457642 -0.37750843)
(1.5757697 0.1998567 -0.35388315)
(1.5757697 0.030445272 -0.40141848)
(1.5757697 0.088932328 -0.39345494)
(1.5757697 -0.028581196 -0.40124711)
(1.5757697 -0.24785493 -0.32158378)
(1.5757697 0.36938176 -0.19360688)
(1.5757697 0.3960014 -0.14092343)
(1.5757697 0.29576781 -0.28553694)
(1.5757697 0.33575672 -0.24211989)
(1.5757697 0.25017789 -0.32302979)
(1.5757697 -0.29322636 -0.28382686)
(1.5757697 -0.36630523 -0.19147088)
(1.5757697 -0.33296248 -0.24017832)
(1.5757697 -0.39703056 -0.1275548)
(1.5757697 -0.39261854 -0.13863373)
(1.5693359 -0.42177474 -0.054739691)
(1.5723839 -0.41526699 -0.075965002)
(1.5725297 -0.41488317 -0.077156462)
(1.5744153 -0.4086827 -0.095658764)
(1.5755563 -0.40168297 -0.11518185)
(-0.58180434 -0.47920007 -0.075405896)
(-0.57847619 -0.4824827 -0.061979353)
(-0.87390941 -0.16330466 -0.37546581)
(-0.87116492 -0.1662727 -0.3748222)
(-0.82340813 -0.21791904 -0.35992953)
(-0.81657827 -0.22530518 -0.35720181)
(-0.92600673 -0.10696439 -0.38356239)
(-0.77561975 -0.26959956 -0.33737919)
(-0.76384759 -0.28233048 -0.33049318)
(-0.73151809 -0.31729305 -0.30845073)
(-0.71448141 -0.33571726 -0.294745)
(-0.69189227 -0.36014614 -0.27392402)
(-0.67003489 -0.38378364 -0.25030759)
(-0.60966617 -0.44906905 -0.15592025)
(-0.60227597 -0.45706114 -0.13899694)
(-0.63094473 -0.42605752 -0.19602032)
(-0.65807921 -0.39671305 -0.2356143)
(-0.99503028 -0.032319255 -0.38262585)
(-0.9785018 -0.050193928 -0.38405001)
(-0.59348708 -0.46656585 -0.1156858)
(-1.0011123 0.028604927 -0.38200831)
(-1.0023564 0.026446544 -0.38189349)
(-1.0043129 0.022441033 -0.38172093)
(-1.0051478 0.020401884 -0.38165027)
(-1.0066421 0.015898075 -0.38152817)
(-1.0071453 0.013959203 -0.38148835)
(-1.0080577 0.0090987226 -0.38141775)
(-1.0082688 0.007340611 -0.38140166)
(-1.0085324 0.0021698491 -0.38138187)
(-1.0085186 0.00098996051 -0.38138291)
(-1.00837 -0.0018868815 -0.38139409)
(-1.0080575 -0.0047590421 -0.38141778)
(-1.0073903 -0.0085413884 -0.38146919)
(-1.0066425 -0.011558525 -0.38152811)
(-1.0055628 -0.014944708 -0.38161579)
(-1.0043125 -0.018101253 -0.38172099)
(-1.0028665 -0.021144031 -0.38184759)
(-1.0011123 -0.024265252 -0.38200831)
(-0.99942821 -0.026849268 -0.3821699)
(-0.99874872 0.032141227 -0.3822372)
(-0.99503028 0.03665892 -0.38262585)
(-0.92848545 0.10862347 -0.38375676)
(-0.93984991 0.096333444 -0.38442975)
(-0.98262048 0.050079405 -0.3837662)
(-0.8734917 0.1680961 -0.37536931)
(-0.88322914 0.15756559 -0.37748602)
(-0.82885736 0.21636569 -0.36199445)
(-0.77807856 0.2712802 -0.33874673)
(-0.81886435 0.2271726 -0.35813236)
(-0.73193121 0.32118595 -0.30876395)
(-0.76601517 0.28432602 -0.3318041)
(-0.69117171 0.36526507 -0.27320418)
(-0.71647018 0.33790618 -0.29642773)
(-0.62744027 0.43418705 -0.19009501)
(-0.63356924 0.4275589 -0.20031573)
(-0.65627056 0.40300873 -0.23326434)
(-0.6718021 0.3862122 -0.25236413)
(-0.60729611 0.45597184 -0.1507089)
(-0.59095269 0.47364634 -0.1080866)
(-0.60333478 0.46025577 -0.14155002)
(-0.58180434 0.48353979 -0.075405985)
(-0.57847619 0.48682243 -0.061979443)
(2.0157025 0.091331124 0.14859939)
(2.0157025 0.10751101 0.13513491)
(2.0157025 -0.11679041 0.1202618)
(2.0157025 -0.10252999 0.13574474)
(2.0157025 -0.13827425 0.084174164)
(2.0157025 -0.12878142 0.10296159)
(2.0157025 -0.11734156 -0.069563113)
(2.0157025 -0.1292319 -0.052193575)
(2.0157025 -0.06911055 -0.10969971)
(2.0157025 -0.086991385 -0.098593093)
(2.0157025 0.072666898 -0.11011136)
(2.0157025 0.053376991 -0.11853636)
(2.0157025 0.13357164 0.10219987)
(2.0157025 0.14295521 0.08335764)
(2.0157025 0.07345029 0.15970601)
(2.0157025 -0.068327159 0.16011766)
(2.0157025 -0.049037252 0.16854265)
(2.0157025 -0.10317127 -0.085128605)
(2.0157025 -0.049869891 -0.11823659)
(2.0157025 -0.008796257 -0.12700179)
(2.0157025 -0.029636461 -0.12404086)
(2.0157025 0.090611927 -0.099108748)
(2.0157025 0.12113015 -0.070255503)
(2.0157025 0.10686973 -0.085738443)
(2.0157025 0.149653 0.063402168)
(2.0157025 0.1216813 0.11956941)
(2.0157025 0.033976201 0.17404716)
(2.0157025 0.054209631 0.16824289)
(2.0157025 -0.028770458 0.17422934)
(2.0157025 -0.0079134116 0.17706922)
(2.0157025 -0.086272188 0.14911504)
(2.0157025 -0.13861547 -0.033351339)
(2.0157025 -0.14531326 -0.013395867)
(2.0157025 0.01225315 -0.12706292)
(2.0157025 0.013135995 0.17700809)
(2.0157025 -0.14909211 0.043592811)
(2.0157025 -0.14508781 0.06425792)
(2.0157025 0.033110198 -0.12422304)
(2.0157025 0.14261399 -0.034167867)
(2.0157025 0.13312116 -0.052955296)
(2.0157025 0.15343185 0.0064134896)
(2.0157025 0.14942755 -0.014251623)
(2.0157025 -0.15022948 0.025445629)
(2.0157025 0.15456922 0.024560671)
(2.0157025 0.15353724 0.042714152)
(2.0157025 -0.1491975 0.0072921487)
(-0.55135226 0.49938732 0.02355952)
(-0.55136853 0.49938509 0.023558725)
)


// edges:

290
(
(4 5)
(6 7)
(8 6)
(9 8)
(10 11)
(11 9)
(7 4)
(12 13)
(14 12)
(15 14)
(16 15)
(17 16)
(18 17)
(19 18)
(5 19)
(13 20)
(20 21)
(22 23)
(24 25)
(21 26)
(26 24)
(25 27)
(27 28)
(28 22)
(23 29)
(29 30)
(31 32)
(33 34)
(35 33)
(30 35)
(34 31)
(32 36)
(37 38)
(38 10)
(39 40)
(40 37)
(36 41)
(41 42)
(42 43)
(43 44)
(45 46)
(47 45)
(48 47)
(49 48)
(50 49)
(44 50)
(46 51)
(52 53)
(54 52)
(55 54)
(56 55)
(57 56)
(58 57)
(59 60)
(51 61)
(61 62)
(62 63)
(63 64)
(64 59)
(60 58)
(53 65)
(65 66)
(66 67)
(67 68)
(68 69)
(69 70)
(70 39)
(71 0)
(0 72)
(1 73)
(72 1)
(73 2)
(2 74)
(3 71)
(74 3)
(75 76)
(77 75)
(78 77)
(79 80)
(81 82)
(83 84)
(85 78)
(86 79)
(87 88)
(89 81)
(90 83)
(91 92)
(93 94)
(95 85)
(88 86)
(96 97)
(98 89)
(99 100)
(92 90)
(94 101)
(102 95)
(103 87)
(104 105)
(106 96)
(100 98)
(84 107)
(76 93)
(105 103)
(108 106)
(82 108)
(107 109)
(110 102)
(97 104)
(111 91)
(101 112)
(0 99)
(112 111)
(109 1)
(80 110)
(113 114)
(115 113)
(116 115)
(117 116)
(118 119)
(120 121)
(114 122)
(119 123)
(124 120)
(125 126)
(127 128)
(129 130)
(131 132)
(133 134)
(123 117)
(121 135)
(136 137)
(126 138)
(139 140)
(130 127)
(134 131)
(141 142)
(122 143)
(137 124)
(140 125)
(144 129)
(132 144)
(145 141)
(146 118)
(2 136)
(128 139)
(147 145)
(148 146)
(135 149)
(150 3)
(142 133)
(149 148)
(138 150)
(143 147)
(151 152)
(153 154)
(152 153)
(155 151)
(156 155)
(157 158)
(159 157)
(160 161)
(162 163)
(158 164)
(165 159)
(166 167)
(168 169)
(161 170)
(164 162)
(171 165)
(172 173)
(169 166)
(163 160)
(173 171)
(174 175)
(170 168)
(175 172)
(167 156)
(176 177)
(177 178)
(178 179)
(179 180)
(180 174)
(181 182)
(183 184)
(185 186)
(187 183)
(188 189)
(184 185)
(190 191)
(186 188)
(192 193)
(189 190)
(194 195)
(191 192)
(196 194)
(193 197)
(198 199)
(195 200)
(199 187)
(197 196)
(200 181)
(201 202)
(203 204)
(205 206)
(207 208)
(209 210)
(211 212)
(210 211)
(213 214)
(212 213)
(215 216)
(214 215)
(217 218)
(216 217)
(218 219)
(219 198)
(208 209)
(206 207)
(204 205)
(202 203)
(220 201)
(221 220)
(222 223)
(223 224)
(225 226)
(226 222)
(227 225)
(228 229)
(229 227)
(230 231)
(231 228)
(232 233)
(234 235)
(233 230)
(236 237)
(238 234)
(239 240)
(237 232)
(240 238)
(235 236)
(241 239)
(224 221)
(242 241)
(243 244)
(245 246)
(247 248)
(249 250)
(251 252)
(253 254)
(255 256)
(257 243)
(258 259)
(248 245)
(260 249)
(261 251)
(262 263)
(264 253)
(265 266)
(256 267)
(244 268)
(269 270)
(271 272)
(246 273)
(273 258)
(274 275)
(252 260)
(276 262)
(266 264)
(268 255)
(277 269)
(259 271)
(278 279)
(250 274)
(280 276)
(254 280)
(281 282)
(283 284)
(270 257)
(279 247)
(263 261)
(284 281)
(272 277)
(282 265)
(285 278)
(286 283)
(267 287)
(275 288)
(288 285)
(287 286)
(289 290)
)

// * * * * * * * * * * * * * * * * * * * * * * * * * * * * * * * * * * * * * //


// ************************************************************************* //
