/*--------------------------------*- C++ -*----------------------------------*\
| =========                 |                                                 |
| \\      /  F ield         | OpenFOAM: The Open Source CFD Toolbox           |
|  \\    /   O peration     | Version:  3.0.1                                 |
|   \\  /    A nd           | Web:      www.OpenFOAM.org                      |
|    \\/     M anipulation  |                                                 |
\*---------------------------------------------------------------------------*/
FoamFile
{
    version     2.0;
    format      ascii;
    class       extendedFeatureEdgeMesh;
    location    "constant/extendedFeatureEdgeMesh";
    object      geom.extendedFeatureEdgeMesh;
}
// * * * * * * * * * * * * * * * * * * * * * * * * * * * * * * * * * * * * * //

// points

2370
(
(-1.1397426 -0.012567887 -0.49306199)
(25 -0.53251028 -0.72136003)
(25 0.53251028 -0.72136003)
(-10 -0.53251028 -0.72136003)
(-10 0.53251028 -0.72136003)
(-1.1399726 -0.012444989 -0.49295357)
(-1.1406906 -0.012047525 -0.49261716)
(-1.1422303 -0.011115871 -0.49190623)
(-1.1397756 -0.012550374 -0.4930464)
(1.5437135 0.074860774 -0.72136003)
(1.543714 -0.070521675 -0.72136003)
(-0.79412556 -0.063447416 -0.72136003)
(-0.79412425 0.067786552 -0.72136003)
(-0.7700215 0.26408112 -0.72136003)
(-1.1394428 -0.012724931 -0.49320382)
(1.5512154 0.14092326 -0.72136003)
(1.5492587 0.15074478 -0.72136003)
(1.5454073 0.17007653 -0.72136003)
(1.5415559 0.18940824 -0.72136003)
(1.5462612 0.16579053 -0.72136003)
(1.5412679 0.19085398 -0.72136003)
(1.5377045 0.20873989 -0.72136003)
(1.5362138 0.21611911 -0.72136003)
(1.5338302 0.22806692 -0.72136003)
(1.5311298 0.24160244 -0.72136003)
(1.5299737 0.24739744 -0.72136003)
(1.5260859 0.26672164 -0.72136003)
(1.5222245 0.28605106 -0.72136003)
(1.5207672 0.29325169 -0.72136003)
(1.5183437 0.30537653 -0.72136003)
(1.514459 0.32470119 -0.72136003)
(1.5101923 0.34590542 -0.72136003)
(1.5066797 0.36334828 -0.72136003)
(1.4984382 0.40423942 -0.72136003)
(1.4982418 0.40521026 -0.72136003)
(1.4962039 0.41529298 -0.72136003)
(1.4957354 0.4176183 -0.72136003)
(1.4952248 0.42015281 -0.72136003)
(1.4949903 0.42131442 -0.72136003)
(1.4944973 0.42364639 -0.72136003)
(1.4943135 0.4244383 -0.72136003)
(1.492384 0.43126079 -0.72136003)
(1.4920852 0.43214613 -0.72136003)
(1.492519 0.43084478 -0.72136003)
(1.4886148 0.44063112 -0.72136003)
(1.4885459 0.44077495 -0.72136003)
(1.4864299 0.44487223 -0.72136003)
(1.4861881 0.44530252 -0.72136003)
(1.4834706 0.44979903 -0.72136003)
(1.4832156 0.45018819 -0.72136003)
(1.484032 0.44892445 -0.72136003)
(1.4771059 0.45828131 -0.72136003)
(1.4760841 0.45944664 -0.72136003)
(1.4772862 0.45807073 -0.72136003)
(1.4778826 0.45736402 -0.72136003)
(1.4750026 0.46063167 -0.72136003)
(1.4721776 0.4635151 -0.72136003)
(1.4703898 0.46519729 -0.72136003)
(1.4674865 0.46772003 -0.72136003)
(1.4666111 0.46843395 -0.72136003)
(1.4678879 0.46738571 -0.72136003)
(1.4647639 0.46987492 -0.72136003)
(1.4632713 0.47097734 -0.72136003)
(1.4623131 0.4716571 -0.72136003)
(1.45909 0.47379312 -0.72136003)
(1.4578915 0.4745318 -0.72136003)
(1.4608641 0.47264519 -0.72136003)
(1.4559107 0.47569004 -0.72136003)
(1.4500413 0.47869566 -0.72136003)
(1.4486592 0.4793168 -0.72136003)
(1.4508531 0.47831586 -0.72136003)
(1.4457784 0.4805119 -0.72136003)
(1.4438939 0.48122364 -0.72136003)
(1.4403567 0.482416 -0.72136003)
(1.4392521 0.48275098 -0.72136003)
(1.4383056 0.48302418 -0.72136003)
(1.4346006 0.48397341 -0.72136003)
(1.4334953 0.48422024 -0.72136003)
(1.4303302 0.48483711 -0.72136003)
(1.4297279 0.4849396 -0.72136003)
(1.4269404 0.48535308 -0.72136003)
(1.4198138 0.48595852 -0.72136003)
(1.4166162 0.48602185 -0.72136003)
(-0.14030105 -0.4816823 -0.72136003)
(-0.01829615 -0.4816823 -0.72136003)
(-9.8499119e-17 -0.4816823 -0.72136003)
(0.026041707 -0.4816823 -0.72136003)
(0.045773335 -0.4816823 -0.72136003)
(0.057012357 -0.4816823 -0.72136003)
(0.077479683 -0.48165053 -0.72136003)
(0.07754688 -0.48164922 -0.72136003)
(0.075644083 -0.4816823 -0.72136003)
(0.075853258 -0.4816823 -0.72136003)
(0.074478954 -0.4816823 -0.72136003)
(0.075174749 -0.4816823 -0.72136003)
(0.080902204 -0.48147237 -0.72136003)
(0.081468396 -0.48142219 -0.72136003)
(0.084175587 -0.48110309 -0.72136003)
(0.084930167 -0.48099333 -0.72136003)
(0.082348451 -0.48132303 -0.72136003)
(0.082464129 -0.48130998 -0.72136003)
(0.088667534 -0.48030546 -0.72136003)
(0.089113407 -0.48020646 -0.72136003)
(0.087634027 -0.4805198 -0.72136003)
(0.087761171 -0.48049343 -0.72136003)
(0.086103283 -0.48080641 -0.72136003)
(0.087463722 -0.48055512 -0.72136003)
(0.089651905 -0.48007384 -0.72136003)
(0.090488441 -0.47986785 -0.72136003)
(0.093408786 -0.47906521 -0.72136003)
(0.093559764 -0.47901943 -0.72136003)
(0.099683486 -0.47675782 -0.72136003)
(0.099892654 -0.47666764 -0.72136003)
(0.103452 -0.47497463 -0.72136003)
(0.10369666 -0.47484735 -0.72136003)
(0.10608232 -0.47352937 -0.72136003)
(0.10709912 -0.47292349 -0.72136003)
(0.11016153 -0.47092709 -0.72136003)
(0.11037255 -0.47077951 -0.72136003)
(0.10935233 -0.4714807 -0.72136003)
(0.10798515 -0.47237298 -0.72136003)
(0.11248067 -0.46922874 -0.72136003)
(0.11350221 -0.46842462 -0.72136003)
(0.1163266 -0.46600297 -0.72136003)
(0.1164735 -0.46586841 -0.72136003)
(0.11563194 -0.46662718 -0.72136003)
(0.11433451 -0.46774232 -0.72136003)
(0.11837938 -0.46403825 -0.72136003)
(0.1192731 -0.46312213 -0.72136003)
(0.12177444 -0.46033347 -0.72136003)
(0.12188831 -0.46019784 -0.72136003)
(0.12106814 -0.46115696 -0.72136003)
(0.12004735 -0.46229589 -0.72136003)
(0.1235592 -0.45810854 -0.72136003)
(0.12430699 -0.45710814 -0.72136003)
(0.12642337 -0.4540166 -0.72136003)
(0.12651871 -0.45386711 -0.72136003)
(0.12584025 -0.45491055 -0.72136003)
(0.12496258 -0.45619392 -0.72136003)
(0.12791178 -0.45156249 -0.72136003)
(0.12851349 -0.45048916 -0.72136003)
(0.13023417 -0.44709292 -0.72136003)
(0.13028246 -0.44698936 -0.72136003)
(0.12975475 -0.44809434 -0.72136003)
(0.12906915 -0.44944951 -0.72136003)
(0.13136716 -0.44451302 -0.72136003)
(0.13181849 -0.44338372 -0.72136003)
(0.13274288 -0.44083065 -0.72136003)
(0.13308255 -0.43979034 -0.72136003)
(0.13224036 -0.44226319 -0.72136003)
(0.13311473 -0.43968832 -0.72136003)
(0.13387105 -0.43707851 -0.72136003)
(0.134444 -0.43473053 -0.72136003)
(0.13475366 -0.43325341 -0.72136003)
(0.13416629 -0.43591985 -0.72136003)
(0.13496132 -0.43214151 -0.72136003)
(0.13913575 -0.4084672 -0.72136003)
(0.14581369 -0.37059474 -0.72136003)
(0.15583059 -0.31378606 -0.72136003)
(0.17753722 -0.19134001 -0.72136003)
(0.1776471 -0.19087458 -0.72136003)
(0.1782176 -0.18857938 -0.72136003)
(0.17851231 -0.18750969 -0.72136003)
(0.17880076 -0.18654522 -0.72136003)
(0.17906369 -0.18566608 -0.72136003)
(0.17998238 -0.18286014 -0.72136003)
(0.18031073 -0.18194471 -0.72136003)
(0.18226102 -0.17710896 -0.72136003)
(0.18229204 -0.17703962 -0.72136003)
(0.18308759 -0.17526177 -0.72136003)
(0.18412155 -0.17314349 -0.72136003)
(0.18616851 -0.16935706 -0.72136003)
(0.186684 -0.1684753 -0.72136003)
(0.18449345 -0.17241763 -0.72136003)
(0.18798612 -0.16635628 -0.72136003)
(0.18952928 -0.16402172 -0.72136003)
(0.18671803 -0.16841798 -0.72136003)
(0.19090757 -0.16207661 -0.72136003)
(0.19198559 -0.16063653 -0.72136003)
(0.19259971 -0.15984537 -0.72136003)
(0.19415617 -0.1579275 -0.72136003)
(0.19572312 -0.15611231 -0.72136003)
(0.19607113 -0.15572371 -0.72136003)
(0.19834171 -0.15330744 -0.72136003)
(0.19981648 -0.15184039 -0.72136003)
(0.20109487 -0.15062837 -0.72136003)
(0.19883487 -0.15280832 -0.72136003)
(0.20381384 -0.14821947 -0.72136003)
(0.20698667 -0.14567056 -0.72136003)
(0.20804037 -0.14488094 -0.72136003)
(0.2101153 -0.14340289 -0.72136003)
(0.2119481 -0.14217764 -0.72136003)
(0.21335864 -0.14128327 -0.72136003)
(0.2153684 -0.14007849 -0.72136003)
(0.21603249 -0.1396977 -0.72136003)
(0.21840484 -0.13840485 -0.72136003)
(0.22046788 -0.13736296 -0.72136003)
(0.22151448 -0.13686259 -0.72136003)
(0.22372319 -0.13586673 -0.72136003)
(0.2250386 -0.13531135 -0.72136003)
(0.22737163 -0.13439326 -0.72136003)
(0.22972885 -0.13354996 -0.72136003)
(0.23110767 -0.1330948 -0.72136003)
(0.23505944 -0.13194109 -0.72136003)
(0.23799795 -0.13122374 -0.72136003)
(0.23881555 -0.13104492 -0.72136003)
(0.24139774 -0.13053857 -0.72136003)
(0.24277361 -0.13030455 -0.72136003)
(0.24049269 -0.13070601 -0.72136003)
(0.24482313 -0.13000152 -0.72136003)
(0.24598546 -0.12985367 -0.72136003)
(0.24827422 -0.12961292 -0.72136003)
(0.25086352 -0.1294205 -0.72136003)
(0.25150841 -0.12938569 -0.72136003)
(0.25525498 -0.12928651 -0.72136003)
(0.28599226 -0.12928614 -0.72136003)
(0.31674799 -0.12928614 -0.72136003)
(0.37825939 -0.12928614 -0.72136003)
(0.27115166 -0.12928621 -0.72136003)
(0.49634132 -0.12928614 -0.72136003)
(0.49825278 -0.12928614 -0.72136003)
(0.52845216 -0.12928614 -0.72136003)
(0.53261787 -0.12928614 -0.72136003)
(0.53522372 -0.12928614 -0.72136003)
(0.53665292 -0.12928639 -0.72136003)
(0.54295361 -0.12950814 -0.72136003)
(0.54405063 -0.12959321 -0.72136003)
(0.54917043 -0.1302294 -0.72136003)
(0.54993135 -0.13034655 -0.72136003)
(0.55321467 -0.13093558 -0.72136003)
(0.55395597 -0.131089 -0.72136003)
(0.55543482 -0.13141882 -0.72136003)
(0.55722916 -0.13186358 -0.72136003)
(0.55799884 -0.1320679 -0.72136003)
(0.55929506 -0.13243067 -0.72136003)
(0.561333 -0.133049 -0.72136003)
(0.56208187 -0.1332912 -0.72136003)
(0.5646345 -0.13417873 -0.72136003)
(0.56682104 -0.13501714 -0.72136003)
(0.56790125 -0.13545878 -0.72136003)
(0.57390118 -0.13825995 -0.72136003)
(0.57586592 -0.13931327 -0.72136003)
(0.57725734 -0.14010257 -0.72136003)
(0.58032513 -0.14197689 -0.72136003)
(0.58309859 -0.14384097 -0.72136003)
(0.58448064 -0.14483441 -0.72136003)
(0.58590037 -0.14590251 -0.72136003)
(0.58689421 -0.14668021 -0.72136003)
(0.58858341 -0.14806175 -0.72136003)
(0.58985001 -0.14914964 -0.72136003)
(0.59125614 -0.15041296 -0.72136003)
(0.59246111 -0.15154476 -0.72136003)
(0.59377515 -0.15283421 -0.72136003)
(0.59537476 -0.15448725 -0.72136003)
(0.59610254 -0.15527178 -0.72136003)
(0.59793466 -0.15734398 -0.72136003)
(0.59845883 -0.15796427 -0.72136003)
(0.59950083 -0.15923633 -0.72136003)
(0.60062534 -0.16067135 -0.72136003)
(0.60475069 -0.1665971 -0.72136003)
(0.60565346 -0.16806215 -0.72136003)
(0.60641879 -0.16936243 -0.72136003)
(0.60823703 -0.17270072 -0.72136003)
(0.60964167 -0.17557216 -0.72136003)
(0.61031401 -0.1770587 -0.72136003)
(0.61103749 -0.17875533 -0.72136003)
(0.61297184 -0.18394189 -0.72136003)
(0.61340386 -0.18527372 -0.72136003)
(0.61369425 -0.18621679 -0.72136003)
(0.61437446 -0.18860866 -0.72136003)
(0.61503202 -0.19124368 -0.72136003)
(0.61588508 -0.19543463 -0.72136003)
(0.63261569 -0.29031849 -0.72136003)
(0.634794 -0.30267236 -0.72136003)
(0.65606463 -0.42330429 -0.72136003)
(0.65625554 -0.42438689 -0.72136003)
(0.65883577 -0.43753311 -0.72136003)
(0.65947765 -0.43971431 -0.72136003)
(0.65999204 -0.44127262 -0.72136003)
(0.66034555 -0.44226784 -0.72136003)
(0.6608209 -0.4435254 -0.72136003)
(0.66139126 -0.44493189 -0.72136003)
(0.66241211 -0.44722527 -0.72136003)
(0.66425067 -0.45081556 -0.72136003)
(0.66478938 -0.45176518 -0.72136003)
(0.66302747 -0.44849458 -0.72136003)
(0.66351539 -0.44945011 -0.72136003)
(0.66489369 -0.45194456 -0.72136003)
(0.66632527 -0.45427221 -0.72136003)
(0.66862154 -0.45757419 -0.72136003)
(0.6691823 -0.45831352 -0.72136003)
(0.6676293 -0.45620483 -0.72136003)
(0.66928357 -0.4584446 -0.72136003)
(0.67113906 -0.46072114 -0.72136003)
(0.67385483 -0.46368408 -0.72136003)
(0.67436874 -0.46420211 -0.72136003)
(0.67178756 -0.4614656 -0.72136003)
(0.67255235 -0.46231273 -0.72136003)
(0.67448306 -0.46431562 -0.72136003)
(0.67627376 -0.46601766 -0.72136003)
(0.67963368 -0.46886334 -0.72136003)
(0.68033022 -0.46940237 -0.72136003)
(0.67826807 -0.46775764 -0.72136003)
(0.67735761 -0.46698248 -0.72136003)
(0.68039829 -0.46945417 -0.72136003)
(0.68270344 -0.47112134 -0.72136003)
(0.68616992 -0.47333455 -0.72136003)
(0.68686497 -0.47373918 -0.72136003)
(0.68462873 -0.47239175 -0.72136003)
(0.68359119 -0.47172031 -0.72136003)
(0.68915874 -0.47498834 -0.72136003)
(0.68977481 -0.47530216 -0.72136003)
(0.68692154 -0.47377157 -0.72136003)
(0.69037437 -0.47559905 -0.72136003)
(0.6915096 -0.47613874 -0.72136003)
(0.69638687 -0.47814003 -0.72136003)
(0.69724864 -0.4784427 -0.72136003)
(0.69393384 -0.4771961 -0.72136003)
(0.69769198 -0.47859144 -0.72136003)
(0.69843614 -0.4788321 -0.72136003)
(0.70130783 -0.47967511 -0.72136003)
(0.70395607 -0.48031405 -0.72136003)
(0.70867676 -0.48114401 -0.72136003)
(0.71170366 -0.48147419 -0.72136003)
(0.71261817 -0.48154351 -0.72136003)
(0.71432525 -0.48163542 -0.72136003)
(0.87036282 -0.4816823 -0.72136003)
(0.87665457 -0.4816823 -0.72136003)
(1.4162906 -0.4816823 -0.72136003)
(1.4166162 -0.4816823 -0.72136003)
(1.424578 -0.48128596 -0.72136003)
(1.4266937 -0.48104534 -0.72136003)
(1.4303197 -0.48049939 -0.72136003)
(1.4315165 -0.48028183 -0.72136003)
(1.4290245 -0.48071381 -0.72136003)
(1.4336685 -0.47984308 -0.72136003)
(1.4361483 -0.47926036 -0.72136003)
(1.4384847 -0.47863391 -0.72136003)
(1.4403259 -0.47808605 -0.72136003)
(1.4411074 -0.47783875 -0.72136003)
(1.4436089 -0.47698703 -0.72136003)
(1.4455632 -0.4762564 -0.72136003)
(1.4468491 -0.47574356 -0.72136003)
(1.450146 -0.47430775 -0.72136003)
(1.4535745 -0.47262049 -0.72136003)
(1.4561259 -0.47122833 -0.72136003)
(1.4585878 -0.46976665 -0.72136003)
(1.4549805 -0.47186831 -0.72136003)
(1.4595268 -0.46917707 -0.72136003)
(1.4619391 -0.46757701 -0.72136003)
(1.4634452 -0.46651208 -0.72136003)
(1.4638777 -0.46619636 -0.72136003)
(1.4668486 -0.46390277 -0.72136003)
(1.4672923 -0.4635407 -0.72136003)
(1.4673475 -0.46349525 -0.72136003)
(1.4673549 -0.46348912 -0.72136003)
(1.470242 -0.46099228 -0.72136003)
(1.4723276 -0.45902959 -0.72136003)
(1.473968 -0.45738226 -0.72136003)
(1.4749842 -0.45631203 -0.72136003)
(1.4772103 -0.45381999 -0.72136003)
(1.4796962 -0.45076805 -0.72136003)
(1.4803145 -0.44995883 -0.72136003)
(1.481496 -0.44835079 -0.72136003)
(1.4831854 -0.4458943 -0.72136003)
(1.4854065 -0.44233075 -0.72136003)
(1.4858255 -0.44160864 -0.72136003)
(1.4869719 -0.43953857 -0.72136003)
(1.4882882 -0.43696699 -0.72136003)
(1.4896083 -0.43412986 -0.72136003)
(1.4899532 -0.43333736 -0.72136003)
(1.4902976 -0.43252161 -0.72136003)
(1.4904531 -0.43214452 -0.72136003)
(1.4912244 -0.43018863 -0.72136003)
(1.4919266 -0.4282639 -0.72136003)
(1.4922644 -0.42727986 -0.72136003)
(1.4933909 -0.42364898 -0.72136003)
(1.4936584 -0.42268667 -0.72136003)
(1.4937874 -0.42220503 -0.72136003)
(1.4948593 -0.41762313 -0.72136003)
(1.4949903 -0.41697487 -0.72136003)
(1.4945369 -0.41913188 -0.72136003)
(1.498889 -0.39765331 -0.72136003)
(1.5014334 -0.38503793 -0.72136003)
(1.4959414 -0.41226235 -0.72136003)
(1.5066795 -0.35900873 -0.72136003)
(1.5105709 -0.33968553 -0.72136003)
(1.5027856 -0.3783313 -0.72136003)
(1.5183437 -0.30103698 -0.72136003)
(1.5222245 -0.28171152 -0.72136003)
(1.514459 -0.32036164 -0.72136003)
(1.5122201 -0.33149096 -0.72136003)
(1.5227612 -0.27903736 -0.72136003)
(1.5261014 -0.26238516 -0.72136003)
(1.5279453 -0.25318483 -0.72136003)
(1.5299737 -0.24305789 -0.72136003)
(1.5338416 -0.22372964 -0.72136003)
(1.5377046 -0.20440035 -0.72136003)
(1.5330744 -0.22756547 -0.72136003)
(1.5381505 -0.20216714 -0.72136003)
(1.5415624 -0.18506999 -0.72136003)
(1.5431758 -0.17697865 -0.72136003)
(1.5454153 -0.16573857 -0.72136003)
(1.548152 -0.15199044 -0.72136003)
(1.5492628 -0.14640604 -0.72136003)
(1.553105 -0.12707241 -0.72136003)
(1.5569417 -0.10773765 -0.72136003)
(1.553081 -0.12719303 -0.72136003)
(1.5569417 0.11207721 -0.72136003)
(1.5531049 0.13141195 -0.72136003)
(1.4876804 -0.43818256 -0.72136003)
(1.4827538 -0.44654098 -0.72136003)
(1.4762193 -0.45495546 -0.72136003)
(1.4216738 -0.48152319 -0.72136003)
(1.4200801 -0.48160791 -0.72136003)
(1.357094 -0.4816823 -0.72136003)
(1.3708286 -0.4816823 -0.72136003)
(0.7407614 -0.4816823 -0.72136003)
(0.75480634 -0.4816823 -0.72136003)
(0.71694016 -0.4816823 -0.72136003)
(0.70476037 -0.48048311 -0.72136003)
(0.70508921 -0.48054895 -0.72136003)
(0.70089728 -0.47956458 -0.72136003)
(0.69758379 -0.47855645 -0.72136003)
(0.69349152 -0.4770126 -0.72136003)
(0.67676401 -0.46645993 -0.72136003)
(0.66698229 -0.45526612 -0.72136003)
(0.661295 -0.44470155 -0.72136003)
(0.65839553 -0.43582773 -0.72136003)
(0.65814078 -0.43473288 -0.72136003)
(0.65664238 -0.42658064 -0.72136003)
(0.65762293 -0.43214151 -0.72136003)
(0.64015859 -0.33309662 -0.72136003)
(0.64020312 -0.33334893 -0.72136003)
(0.61222953 -0.1818195 -0.72136003)
(0.60671997 -0.16988993 -0.72136003)
(0.6026364 -0.16341798 -0.72136003)
(0.57731414 -0.14013559 -0.72136003)
(0.5714196 -0.13702777 -0.72136003)
(0.55463356 -0.13122924 -0.72136003)
(0.5408442 -0.12937447 -0.72136003)
(0.54220438 -0.12945002 -0.72136003)
(0.52173543 -0.12928614 -0.72136003)
(0.52409667 -0.12928614 -0.72136003)
(0.42113709 -0.12928614 -0.72136003)
(0.42607421 -0.12928614 -0.72136003)
(0.40742731 -0.12928614 -0.72136003)
(0.41577905 -0.12928614 -0.72136003)
(0.17681247 -0.19486307 -0.72136003)
(0.17693847 -0.19422756 -0.72136003)
(0.16253699 -0.27575222 -0.72136003)
(0.16346133 -0.27050999 -0.72136003)
(1.3413789 0.48602185 -0.72136003)
(1.2171923 0.48602185 -0.72136003)
(1.4200808 0.48594743 -0.72136003)
(1.4533229 0.47709087 -0.72136003)
(1.4740341 0.4616535 -0.72136003)
(1.4801003 0.45458114 -0.72136003)
(1.4811646 0.45315 -0.72136003)
(1.4858035 0.44598657 -0.72136003)
(1.4880425 0.44179654 -0.72136003)
(1.4877709 0.44231617 -0.72136003)
(1.4897482 0.43809927 -0.72136003)
(1.4895657 0.43850684 -0.72136003)
(1.4914156 0.43400189 -0.72136003)
(1.4912126 0.43455544 -0.72136003)
(1.4920274 0.43231222 -0.72136003)
(1.4919796 0.43244958 -0.72136003)
(1.4935955 0.42722467 -0.72136003)
(1.4930259 0.42914009 -0.72136003)
(1.4998696 0.39713085 -0.72136003)
(1.4996618 0.39816102 -0.72136003)
(1.5105709 0.34402508 -0.72136003)
(1.5188463 0.06477616 -0.72136003)
(1.519882 0.064860858 -0.72136003)
(1.5178188 0.06471777 -0.72136003)
(1.5180274 0.064726666 -0.72136003)
(1.5213419 0.065022446 -0.72136003)
(1.5217196 0.06507235 -0.72136003)
(1.5202416 0.064896084 -0.72136003)
(1.5224375 0.065176472 -0.72136003)
(1.5241016 0.065465085 -0.72136003)
(1.5256968 0.065804668 -0.72136003)
(1.5262427 0.065935358 -0.72136003)
(1.5245793 0.065560244 -0.72136003)
(1.5278465 0.066362895 -0.72136003)
(1.5283926 0.066523604 -0.72136003)
(1.5274026 0.066237971 -0.72136003)
(1.5267739 0.0660697 -0.72136003)
(1.5301766 0.06710393 -0.72136003)
(1.5305413 0.067233212 -0.72136003)
(1.5289143 0.066684499 -0.72136003)
(1.5326787 0.068066657 -0.72136003)
(1.5328606 0.068143718 -0.72136003)
(1.5341203 0.068705037 -0.72136003)
(1.5347931 0.069025077 -0.72136003)
(1.5354316 0.0693423 -0.72136003)
(1.5358384 0.069551416 -0.72136003)
(1.5351213 0.069186464 -0.72136003)
(1.5368732 0.070108868 -0.72136003)
(1.5370815 0.070225574 -0.72136003)
(1.5379107 0.070705749 -0.72136003)
(1.5389073 0.071316838 -0.72136003)
(1.5399169 0.071975775 -0.72136003)
(1.5402874 0.072228201 -0.72136003)
(1.5389858 0.071366608 -0.72136003)
(1.5418463 0.073356092 -0.72136003)
(1.5425444 0.07389795 -0.72136003)
(1.5427904 0.074094698 -0.72136003)
(1.5434961 0.074676298 -0.72136003)
(1.5443476 0.075414173 -0.72136003)
(1.544616 0.075655282 -0.72136003)
(1.5446665 0.075701222 -0.72136003)
(1.5459808 0.076950744 -0.72136003)
(1.5463492 0.077321485 -0.72136003)
(1.5466194 0.077599689 -0.72136003)
(1.5479805 0.079086199 -0.72136003)
(1.5483907 0.079564616 -0.72136003)
(1.5489691 0.080265865 -0.72136003)
(1.5495011 0.080940284 -0.72136003)
(1.5500594 0.081681654 -0.72136003)
(1.5503235 0.082045168 -0.72136003)
(1.550903 0.082874037 -0.72136003)
(1.5515579 0.083868369 -0.72136003)
(1.5515729 0.083892047 -0.72136003)
(1.5527695 0.085900776 -0.72136003)
(1.552929 0.086190291 -0.72136003)
(1.5538489 0.087984949 -0.72136003)
(1.5541034 0.088525057 -0.72136003)
(1.5547929 0.090109073 -0.72136003)
(1.5551088 0.090906218 -0.72136003)
(1.5556 0.092261136 -0.72136003)
(1.5559531 0.093346991 -0.72136003)
(1.5561938 0.094157025 -0.72136003)
(1.5562705 0.094429478 -0.72136003)
(1.5566305 0.095829718 -0.72136003)
(1.5567492 0.096345872 -0.72136003)
(1.5570232 0.097687475 -0.72136003)
(1.5571408 0.098354533 -0.72136003)
(1.5573606 0.099847257 -0.72136003)
(1.5574776 0.10087816 -0.72136003)
(1.5575718 0.10198592 -0.72136003)
(1.5576315 0.10304458 -0.72136003)
(1.5576446 0.10338917 -0.72136003)
(1.5576603 0.10533883 -0.72136003)
(1.5576459 0.10591332 -0.72136003)
(1.5576633 0.10513457 -0.72136003)
(1.5575546 0.1075871 -0.72136003)
(1.5575037 0.10818879 -0.72136003)
(1.5575833 0.10718261 -0.72136003)
(1.5574797 0.10843907 -0.72136003)
(1.5573157 0.10983324 -0.72136003)
(1.5571443 0.11096475 -0.72136003)
(1.5572696 0.11016146 -0.72136003)
(1.5169137 0.064679176 -0.72136003)
(1.5571169 -0.1067872 -0.72136003)
(1.5573151 -0.1054981 -0.72136003)
(1.5573988 -0.10484239 -0.72136003)
(1.5575037 -0.10384918 -0.72136003)
(1.557554 -0.10325453 -0.72136003)
(1.5575833 -0.10284318 -0.72136003)
(1.5575992 -0.10259055 -0.72136003)
(1.5576601 -0.10100705 -0.72136003)
(1.5576652 -0.10006149 -0.72136003)
(1.5576315 -0.09870486 -0.72136003)
(1.5575633 -0.097529583 -0.72136003)
(1.5574737 -0.096500255 -0.72136003)
(1.5572919 -0.094994836 -0.72136003)
(1.5571785 -0.094244041 -0.72136003)
(1.556856 -0.092500605 -0.72136003)
(1.5567524 -0.092020564 -0.72136003)
(1.5556002 -0.087922074 -0.72136003)
(1.5555222 -0.08769612 -0.72136003)
(1.5547929 -0.08576972 -0.72136003)
(1.5547206 -0.085594289 -0.72136003)
(1.5538487 -0.083645292 -0.72136003)
(1.5537945 -0.083532773 -0.72136003)
(1.5527693 -0.081560761 -0.72136003)
(1.5527481 -0.08152274 -0.72136003)
(1.5522274 -0.080617368 -0.72136003)
(1.5515968 -0.079589784 -0.72136003)
(1.5515573 -0.079527907 -0.72136003)
(1.5509827 -0.078652106 -0.72136003)
(1.5508323 -0.078430988 -0.72136003)
(1.5496792 -0.07683339 -0.72136003)
(1.5479805 -0.074746653 -0.72136003)
(1.5475692 -0.074281685 -0.72136003)
(1.5463487 -0.072981589 -0.72136003)
(1.545984 -0.072614454 -0.72136003)
(1.5446153 -0.071315095 -0.72136003)
(1.5443467 -0.071073771 -0.72136003)
(1.5435649 -0.070394792 -0.72136003)
(1.541438 -0.068710484 -0.72136003)
(1.5408632 -0.068292558 -0.72136003)
(1.5399035 -0.067627236 -0.72136003)
(1.539179 -0.067150533 -0.72136003)
(1.5378968 -0.066357903 -0.72136003)
(1.5371084 -0.06590122 -0.72136003)
(1.5358381 -0.065211803 -0.72136003)
(1.5351299 -0.064851217 -0.72136003)
(1.5342801 -0.064440198 -0.72136003)
(1.5331031 -0.063908443 -0.72136003)
(1.5317019 -0.063329846 -0.72136003)
(1.5310426 -0.063077345 -0.72136003)
(1.5326785 -0.063726984 -0.72136003)
(1.5305413 -0.062893599 -0.72136003)
(1.5290346 -0.062383085 -0.72136003)
(1.5283926 -0.062184062 -0.72136003)
(1.5268229 -0.061742879 -0.72136003)
(1.5262837 -0.061605912 -0.72136003)
(1.524664 -0.061238151 -0.72136003)
(1.5234592 -0.061006248 -0.72136003)
(1.5224724 -0.060842328 -0.72136003)
(1.5241016 -0.061125528 -0.72136003)
(1.5205791 -0.060592294 -0.72136003)
(1.5202547 -0.060557861 -0.72136003)
(1.517818 -0.060376927 -0.72136003)
(1.5176889 -0.060371149 -0.72136003)
(1.5157946 -0.060330223 -0.72136003)
(1.5219787 -0.060769022 -0.72136003)
(1.5367872 -0.065721571 -0.72136003)
(1.5389078 -0.066977546 -0.72136003)
(1.5427901 -0.069754817 -0.72136003)
(1.5455607 -0.072199725 -0.72136003)
(1.5474398 -0.074138336 -0.72136003)
(1.5492809 -0.076317884 -0.72136003)
(1.5495014 -0.076601163 -0.72136003)
(1.5509036 -0.078535259 -0.72136003)
(1.5534735 -0.082885481 -0.72136003)
(1.5545689 -0.085233599 -0.72136003)
(1.5554975 -0.08762528 -0.72136003)
(1.5562592 -0.090049304 -0.72136003)
(1.5562706 -0.090090618 -0.72136003)
(1.5565548 -0.091176555 -0.72136003)
(1.5570232 -0.0933479 -0.72136003)
(1.5573606 -0.095507912 -0.72136003)
(1.5575718 -0.097646706 -0.72136003)
(1.5576633 -0.10079506 -0.72136003)
(1.5573671 -0.10510154 -0.72136003)
(-0.60721624 0.06466978 -0.72136003)
(7.8163489e-18 0.06466978 -0.72136003)
(0.25498256 -0.060330223 -0.72136003)
(0.25479293 -0.060330223 -0.72136003)
(-0.77648199 -0.06035611 -0.72136003)
(-0.77696437 -0.060370374 -0.72136003)
(-0.77970862 -0.06052478 -0.72136003)
(-0.77974999 -0.060527992 -0.72136003)
(-0.77867484 -0.060444534 -0.72136003)
(-0.77724308 -0.060378619 -0.72136003)
(-0.77725267 -0.060378999 -0.72136003)
(-0.78215164 -0.060766906 -0.72136003)
(-0.78230405 -0.060785268 -0.72136003)
(-0.78093171 -0.060633738 -0.72136003)
(-0.78458172 -0.061105929 -0.72136003)
(-0.78489929 -0.061157588 -0.72136003)
(-0.78336829 -0.060924269 -0.72136003)
(-0.78279066 -0.060846481 -0.72136003)
(-0.78699869 -0.061542753 -0.72136003)
(-0.78752095 -0.061650503 -0.72136003)
(-0.78657275 -0.061458413 -0.72136003)
(-0.78579187 -0.061312024 -0.72136003)
(-0.78820223 -0.061798356 -0.72136003)
(-0.78883988 -0.061944284 -0.72136003)
(-0.78940243 -0.062079143 -0.72136003)
(-0.79016083 -0.062270172 -0.72136003)
(-0.79050463 -0.062360294 -0.72136003)
(-0.79148293 -0.062628917 -0.72136003)
(-0.79179245 -0.062717691 -0.72136003)
(-0.79280496 -0.063021064 -0.72136003)
(-0.79298222 -0.063076258 -0.72136003)
(-0.79416704 -0.063461371 -0.72136003)
(-0.79429311 -0.063504025 -0.72136003)
(-0.79534131 -0.063871488 -0.72136003)
(-0.79674953 -0.064401984 -0.72136003)
(-0.79763633 -0.064758457 -0.72136003)
(-0.7980516 -0.064931519 -0.72136003)
(-0.79879707 -0.065252274 -0.72136003)
(-0.79934162 -0.065494932 -0.72136003)
(-0.79992616 -0.065763481 -0.72136003)
(-0.80062342 -0.06609495 -0.72136003)
(-0.80082309 -0.06619215 -0.72136003)
(-0.8021493 -0.066864364 -0.72136003)
(-0.80313528 -0.067395248 -0.72136003)
(-0.80324292 -0.067454889 -0.72136003)
(-0.80401117 -0.067890339 -0.72136003)
(-0.80539304 -0.068718955 -0.72136003)
(-0.80557573 -0.068833061 -0.72136003)
(-0.80432427 -0.06807287 -0.72136003)
(-0.80669361 -0.069555663 -0.72136003)
(-0.80749154 -0.070098266 -0.72136003)
(-0.80792511 -0.07040295 -0.72136003)
(-0.80906373 -0.071238235 -0.72136003)
(-0.8093372 -0.071446732 -0.72136003)
(-0.81052673 -0.072391905 -0.72136003)
(-0.81124526 -0.072994746 -0.72136003)
(-0.81149542 -0.073210657 -0.72136003)
(-0.81179798 -0.073476121 -0.72136003)
(-0.81329811 -0.074867457 -0.72136003)
(-0.81336033 -0.074928068 -0.72136003)
(-0.8137998 -0.075363055 -0.72136003)
(-0.8152051 -0.076843418 -0.72136003)
(-0.81573045 -0.07743571 -0.72136003)
(-0.81678563 -0.078699134 -0.72136003)
(-0.81733328 -0.079398446 -0.72136003)
(-0.81833392 -0.080766022 -0.72136003)
(-0.8188414 -0.081510611 -0.72136003)
(-0.81974965 -0.082946561 -0.72136003)
(-0.82008111 -0.083508924 -0.72136003)
(-0.82100672 -0.085214518 -0.72136003)
(-0.82122332 -0.085647658 -0.72136003)
(-0.82209933 -0.08757247 -0.72136003)
(-0.82222599 -0.087878682 -0.72136003)
(-0.82302344 -0.090036146 -0.72136003)
(-0.82366925 -0.092229769 -0.72136003)
(-0.82414925 -0.094390281 -0.72136003)
(-0.82344609 -0.10925313 -0.72136003)
(-0.82297248 -0.1107766 -0.72136003)
(-0.8239724 -0.10714867 -0.72136003)
(-0.82435179 -0.10506237 -0.72136003)
(-0.82459545 -0.10294057 -0.72136003)
(-0.82469821 -0.10080212 -0.72136003)
(-0.82465905 -0.098676182 -0.72136003)
(-0.8244766 -0.09653233 -0.72136003)
(-0.82408398 0.11094882 -0.72136003)
(-0.82443607 0.10879478 -0.72136003)
(-0.82464111 0.10664207 -0.72136003)
(-0.82440048 0.10027802 -0.72136003)
(-0.82404119 0.098178297 -0.72136003)
(-0.8235386 0.096077524 -0.72136003)
(-0.82288116 0.093956016 -0.72136003)
(-0.82209045 0.091890775 -0.72136003)
(-0.81876886 0.085741393 -0.72136003)
(-0.81756878 0.084048778 -0.72136003)
(-0.81732583 0.083728194 -0.72136003)
(-0.81596452 0.082046695 -0.72136003)
(-0.81571317 0.081755392 -0.72136003)
(-0.81425202 0.080163471 -0.72136003)
(-0.813905 0.079808451 -0.72136003)
(-0.81243718 0.078392677 -0.72136003)
(-0.81188965 0.077897049 -0.72136003)
(-0.81027716 0.076527797 -0.72136003)
(-0.80787402 0.074706249 -0.72136003)
(-0.80748928 0.074436232 -0.72136003)
(-0.8024922 0.071385413 -0.72136003)
(-0.80104297 0.070639871 -0.72136003)
(-0.79945719 0.069886923 -0.72136003)
(-0.79879761 0.069592074 -0.72136003)
(-0.79674983 0.06874156 -0.72136003)
(-0.7965067 0.068646908 -0.72136003)
(-0.79619813 0.068528615 -0.72136003)
(-0.79271388 0.067332551 -0.72136003)
(-0.79179657 0.067058422 -0.72136003)
(-0.79148328 0.066968545 -0.72136003)
(-0.78940529 0.0664194 -0.72136003)
(-0.78752148 0.06599015 -0.72136003)
(-0.78700054 0.065882646 -0.72136003)
(-0.78489774 0.065496899 -0.72136003)
(-0.78458267 0.065445654 -0.72136003)
(-0.78230476 0.065124892 -0.72136003)
(-0.78215218 0.065105356 -0.72136003)
(-0.78129661 0.065010548 -0.72136003)
(-0.77721494 0.064717047 -0.72136003)
(-0.77478379 0.06466978 -0.72136003)
(-0.77975118 0.064867646 -0.72136003)
(-0.78525609 0.065557241 -0.72136003)
(-0.78906375 0.066336825 -0.72136003)
(-0.79544032 0.068246908 -0.72136003)
(-0.79805034 0.069270529 -0.72136003)
(-0.80062109 0.070433319 -0.72136003)
(-0.80313605 0.071735233 -0.72136003)
(-0.80529451 0.072997347 -0.72136003)
(-0.80676311 0.073941506 -0.72136003)
(-0.80906141 0.075576 -0.72136003)
(-0.81017178 0.076442659 -0.72136003)
(-0.81228971 0.078257561 -0.72136003)
(-0.81905586 0.08617653 -0.72136003)
(-0.82114863 0.089836106 -0.72136003)
(-0.82004446 0.087785169 -0.72136003)
(-0.82461977 0.10237659 -0.72136003)
(-0.82470119 0.10449188 -0.72136003)
(-0.82358181 0.11310273 -0.72136003)
(-0.82297248 0.11511613 -0.72136003)
(0.71673089 0.48602185 -0.72136003)
(0.71431911 0.48597473 -0.72136003)
(0.71694016 0.48602185 -0.72136003)
(0.71273941 0.48589119 -0.72136003)
(0.71168202 0.48581192 -0.72136003)
(0.70883697 0.48550496 -0.72136003)
(0.70648092 0.48514599 -0.72136003)
(0.70512086 0.48489475 -0.72136003)
(0.70391667 0.48464504 -0.72136003)
(0.70124131 0.48399696 -0.72136003)
(0.69886225 0.48330981 -0.72136003)
(0.69739842 0.48283336 -0.72136003)
(0.69637114 0.48247394 -0.72136003)
(0.69380182 0.48148131 -0.72136003)
(0.69148839 0.48046845 -0.72136003)