/*--------------------------------*- C++ -*----------------------------------*\
| =========                 |                                                 |
| \\      /  F ield         | OpenFOAM: The Open Source CFD Toolbox           |
|  \\    /   O peration     | Version:  3.0.1                                 |
|   \\  /    A nd           | Web:      www.OpenFOAM.org                      |
|    \\/     M anipulation  |                                                 |
\*---------------------------------------------------------------------------*/
FoamFile
{
    version     2.0;
    format      ascii;
    class       extendedFeatureEdgeMesh;
    location    "constant/extendedFeatureEdgeMesh";
    object      geom.extendedFeatureEdgeMesh;
}
// * * * * * * * * * * * * * * * * * * * * * * * * * * * * * * * * * * * * * //

// points

910
(
(30 0.53251028 -0.72136003)
(-5 0.53251028 -0.72136003)
(30 -0.53251028 -0.72136003)
(-5 -0.53251028 -0.72136003)
(-0.98413712 -0.044099621 -0.72136003)
(-0.99033993 -0.037391663 -0.72136003)
(-0.96005177 -0.070146605 -0.72136003)
(-0.96400625 -0.065870076 -0.72136003)
(-0.94367391 -0.087858342 -0.72136003)
(-0.94493055 -0.086499363 -0.72136003)
(-0.97521853 -0.053744618 -0.72136003)
(-0.90073276 -0.13429682 -0.72136003)
(-0.903198 -0.13163081 -0.72136003)
(-0.77836889 -0.26662654 -0.72136003)
(-0.79366314 -0.25008664 -0.72136003)
(-0.91518438 -0.11866818 -0.72136003)
(-0.92333192 -0.10985707 -0.72136003)
(-0.7633099 -0.28291199 -0.72136003)
(-0.77486908 -0.27041137 -0.72136003)
(-0.72031456 -0.32940903 -0.72136003)
(-0.73267293 -0.31604415 -0.72136003)
(-0.92994529 -0.10270509 -0.72136003)
(-0.74856645 -0.29885623 -0.72136003)
(-0.75358003 -0.29343429 -0.72136003)
(-0.7342124 -0.31437927 -0.72136003)
(-0.68190527 -0.37094656 -0.72136003)
(-0.69293869 -0.35901457 -0.72136003)
(-0.70693171 -0.34388182 -0.72136003)
(-0.71239591 -0.33797264 -0.72136003)
(-0.69411457 -0.35774291 -0.72136003)
(-0.64922458 -0.40628886 -0.72136003)
(-0.65736634 -0.397484 -0.72136003)
(-0.67033786 -0.38345608 -0.72136003)
(-0.67454469 -0.37890661 -0.72136003)
(-0.65943819 -0.39524347 -0.72136003)
(-0.63970834 -0.41658017 -0.72136003)
(-0.64158738 -0.41454813 -0.72136003)
(-0.6308943 -0.42611209 -0.72136003)
(-0.62278163 -0.4348855 -0.72136003)
(-0.6273433 -0.42995232 -0.72136003)
(-0.60257554 -0.45673722 -0.72136003)
(-0.603827 -0.45538387 -0.72136003)
(-0.6086337 -0.45018569 -0.72136003)
(-0.61472166 -0.44360191 -0.72136003)
(-0.59717464 -0.462578 -0.72136003)
(-0.59241343 -0.46772701 -0.72136003)
(-0.59468913 -0.46526596 -0.72136003)
(-0.58473456 -0.47603127 -0.72136003)
(-0.58732253 -0.47323254 -0.72136003)
(-0.61536467 -0.4429065 -0.72136003)
(-0.58827311 -0.47220454 -0.72136003)
(1.5336708 0.45583779 -0.72136003)
(1.5414674 0.45096487 -0.72136003)
(-0.59068 -0.46960163 -0.72136003)
(1.5518936 0.44444859 -0.72136003)
(1.3721271 0.5021677 -0.72136003)
(1.3781499 0.50206369 -0.72136003)
(-0.58180434 -0.47920012 -0.72136003)
(1.3846401 0.50190204 -0.72136003)
(-0.99503028 -0.032319289 -0.72136003)
(1.390047 0.50163114 -0.72136003)
(1.3965514 0.50114369 -0.72136003)
(1.4032346 0.50057548 -0.72136003)
(1.4081402 0.49999288 -0.72136003)
(1.4146041 0.49918196 -0.72136003)
(1.4217744 0.49807501 -0.72136003)
(1.4281816 0.49694392 -0.72136003)
(1.4324731 0.49613416 -0.72136003)
(1.4401536 0.49440384 -0.72136003)
(1.4413348 0.49413398 -0.72136003)
(1.4464886 0.49295655 -0.72136003)
(1.4500915 0.49201798 -0.72136003)
(1.4524076 0.49137098 -0.72136003)
(1.458655 0.48961225 -0.72136003)
(1.4645146 0.48781976 -0.72136003)
(1.4706593 0.48575509 -0.72136003)
(1.4735402 0.4847903 -0.72136003)
(1.4764488 0.48375914 -0.72136003)
(1.4824759 0.48139477 -0.72136003)
(1.4962456 0.47564882 -0.72136003)
(1.5052152 0.4715752 -0.72136003)
(1.5067098 0.47083592 -0.72136003)
(1.5124592 0.46789354 -0.72136003)
(1.5176659 0.46517655 -0.72136003)
(1.522561 0.46241325 -0.72136003)
(1.5321569 0.45676965 -0.72136003)
(1.5278949 0.45934951 -0.72136003)
(1.4903505 0.47830597 -0.72136003)
(1.5522966 0.44419199 -0.72136003)
(1.5530229 0.4437058 -0.72136003)
(1.5520589 0.44434443 -0.72136003)
(1.5521215 0.44430462 -0.72136003)
(1.5520011 0.444381 -0.72136003)
(1.5520263 0.44436514 -0.72136003)
(1.5519606 0.44440654 -0.72136003)
(1.551972 0.44439933 -0.72136003)
(1.5519097 0.44443852 -0.72136003)
(1.5519515 0.4444122 -0.72136003)
(1.5519849 0.44439125 -0.72136003)
(1.5533689 0.44348496 -0.72136003)
(1.554373 0.44275907 -0.72136003)
(1.5555979 0.44189864 -0.72136003)
(1.5571887 0.4406071 -0.72136003)
(1.5583405 0.43967193 -0.72136003)
(1.5589395 0.43913567 -0.72136003)
(1.5600197 0.43812624 -0.72136003)
(1.5609188 0.43726313 -0.72136003)
(1.5623344 0.43574333 -0.72136003)
(1.5633272 0.43467695 -0.72136003)
(1.5641273 0.433716 -0.72136003)
(1.5650384 0.43258944 -0.72136003)
(1.5655506 0.43192893 -0.72136003)
(1.5667543 0.43020955 -0.72136003)
(1.5675743 0.42903775 -0.72136003)
(1.5684766 0.42755818 -0.72136003)
(1.5692072 0.42634165 -0.72136003)
(1.5693989 0.42600119 -0.72136003)
(1.5703615 0.42411399 -0.72136003)
(1.5709987 0.42286372 -0.72136003)
(1.5718443 0.42087483 -0.72136003)
(1.5728732 0.41819736 -0.72136003)
(1.573493 0.41640726 -0.72136003)
(1.5723877 0.41959569 -0.72136003)
(1.5724202 0.41951063 -0.72136003)
(1.5735344 0.41627342 -0.72136003)
(1.5741019 0.41416597 -0.72136003)
(1.5744557 0.41284949 -0.72136003)
(1.5745901 0.41224298 -0.72136003)
(1.5748508 0.41090879 -0.72136003)
(1.5751323 0.40939242 -0.72136003)
(1.575356 0.40770483 -0.72136003)
(1.575521 0.40637508 -0.72136003)
(1.5755689 0.405882 -0.72136003)
(1.5756522 0.40470275 -0.72136003)
(1.5757236 0.40337464 -0.72136003)
(1.5757662 0.40173039 -0.72136003)
(1.5757697 0.4013702 -0.72136003)
(1.5757697 -0.2307087 -0.72136003)
(1.5757697 -0.25165063 -0.72136003)
(1.5757697 -0.18673389 -0.72136003)
(1.5757697 -0.20901041 -0.72136003)
(1.5757697 -0.36614794 -0.72136003)
(1.5757697 -0.37698051 -0.72136003)
(1.5757697 -0.14122926 -0.72136003)
(1.5757697 -0.16407208 -0.72136003)
(1.5757697 -0.095849819 -0.72136003)
(1.5757697 -0.118417 -0.72136003)
(1.5757697 0.12084822 -0.72136003)
(1.5757697 0.09831138 -0.72136003)
(1.5757697 0.27437162 -0.72136003)
(1.5757697 0.25426397 -0.72136003)
(1.5757697 -0.35384846 -0.72136003)
(1.5757697 -0.32494324 -0.72136003)
(1.5757697 -0.34010118 -0.72136003)
(1.5757697 -1.0534559e-16 -0.72136003)
(1.5757697 0.18918163 -0.72136003)
(1.5757697 0.16649662 -0.72136003)
(1.5757697 0.23325208 -0.72136003)
(1.5757697 0.21149813 -0.72136003)
(1.5757697 0.29343235 -0.72136003)
(1.5757697 0.34322092 -0.72136003)
(1.5757697 0.32794675 -0.72136003)
(1.5757697 -0.38634327 -0.72136003)
(1.5757697 -0.39424756 -0.72136003)
(1.5757697 -0.27167553 -0.72136003)
(1.5757697 -0.29064244 -0.72136003)
(1.5757697 0.14364815 -0.72136003)
(1.5757697 0.31132421 -0.72136003)
(1.5757697 -0.30843121 -0.72136003)
(1.5757697 0.3695105 -0.72136003)
(1.5757697 0.35708842 -0.72136003)
(1.5757697 0.39797869 -0.72136003)
(1.5757697 0.38046664 -0.72136003)
(1.5757697 0.38995263 -0.72136003)
(-0.99555713 -0.031712763 -0.72136003)
(-0.99726325 -0.029735025 -0.72136003)
(-0.99779826 -0.029031105 -0.72136003)
(1.5757697 -0.39703062 -0.72136003)
(-0.99920416 -0.027168291 -0.72136003)
(-0.99969 -0.026429137 -0.72136003)
(1.5757662 -0.39739078 -0.72136003)
(-0.99977386 -0.026310096 -0.72136003)
(-1.0011367 -0.024225131 -0.72136003)
(-1.0015711 -0.023454182 -0.72136003)
(1.5757604 -0.39800552 -0.72136003)
(1.5756892 -0.39932758 -0.72136003)
(-1.0027995 -0.021273447 -0.72136003)
(-1.0031803 -0.020474348 -0.72136003)
(1.5755686 -0.40154618 -0.72136003)
(1.575404 -0.40287304 -0.72136003)
(-1.0042666 -0.018206317 -0.72136003)
(1.5751876 -0.40469438 -0.72136003)
(-1.0043126 -0.018100953 -0.72136003)
(-1.0046381 -0.017277457 -0.72136003)
(1.5751348 -0.40503708 -0.72136003)
(1.574876 -0.40636203 -0.72136003)
(-1.0055208 -0.015060541 -0.72136003)
(1.5744536 -0.408519 -0.72136003)
(1.5740998 -0.40983552 -0.72136003)
(-1.0055894 -0.014869465 -0.72136003)
(-1.0058577 -0.014025458 -0.72136003)
(1.5736011 -0.41171378 -0.72136003)
(-1.0065573 -0.011855725 -0.72136003)
(1.5735397 -0.41191661 -0.72136003)
(1.5730909 -0.41321781 -0.72136003)
(-1.0066422 -0.011558265 -0.72136003)
(-1.0068523 -0.010697728 -0.72136003)
(1.5723821 -0.41527081 -0.72136003)
(1.5718386 -0.41655001 -0.72136003)
(-1.0073817 -0.0085779689 -0.72136003)
(1.5710191 -0.41848046 -0.72136003)
(-1.0074662 -0.0081828414 -0.72136003)
(-1.007617 -0.007309834 -0.72136003)
(1.5710061 -0.4185082 -0.72136003)
(1.570369 -0.41975838 -0.72136003)
(-1.007988 -0.0052409647 -0.72136003)
(1.5693942 -0.4216699 -0.72136003)
(1.5686648 -0.42288435 -0.72136003)
(-1.0080575 -0.0047589852 -0.72136003)
(-1.0081483 -0.0038776256 -0.72136003)
(1.5686167 -0.42297068 -0.72136003)
(-1.0083712 -0.0018588384 -0.72136003)
(1.5675803 -0.4246887 -0.72136003)
(1.5667605 -0.42586043 -0.72136003)
(-1.0084134 -0.0013027139 -0.72136003)
(-1.0084437 -0.0004171599 -0.72136003)
(1.5666574 -0.42601812 -0.72136003)
(-1.0084629 -8.315022e-17 -0.72136003)
(-1.008522 0.0012908233 -0.72136003)
(1.5655484 -0.4275921 -0.72136003)
(1.5646406 -0.42871451 -0.72136003)
(-1.008492 0.0039144112 -0.72136003)
(-1.0084437 0.0047567659 -0.72136003)
(1.5633303 -0.43033379 -0.72136003)
(1.5623375 -0.43140018 -0.72136003)
(-1.0085323 0.0021698021 -0.72136003)
(1.5620571 -0.43171841 -0.72136003)
(-1.0082647 0.0072863935 -0.72136003)
(-1.0081483 0.0082172351 -0.72136003)
(1.5609187 -0.43292356 -0.72136003)
(1.5598445 -0.43392751 -0.72136003)
(-1.0084134 0.00564232 -0.72136003)
(1.5583388 -0.43533391 -0.72136003)
(1.557187 -0.4362691 -0.72136003)
(-1.0078117 0.010646537 -0.72136003)
(-1.007617 0.011649449 -0.72136003)
(1.5565981 -0.4367685 -0.72136003)
(-1.0080575 0.0090985941 -0.72136003)
(1.5555999 -0.43755746 -0.72136003)
(1.5543751 -0.43841788 -0.72136003)
(-1.0071326 0.013980057 -0.72136003)
(-1.0068523 0.015037353 -0.72136003)
(1.5531056 -0.43932527 -0.72136003)
(-1.0074662 0.012522457 -0.72136003)
(1.5519534 -0.44007146 -0.72136003)
(1.5519208 -0.44009197 -0.72136003)
(-1.0062338 0.017254496 -0.72136003)
(-1.0058577 0.018365096 -0.72136003)
(-1.0066422 0.015897891 -0.72136003)
(1.5519837 -0.44005239 -0.72136003)
(1.5519722 -0.44005966 -0.72136003)
(-1.0051283 0.020436339 -0.72136003)
(-1.004638 0.021617111 -0.72136003)
(-1.0055894 0.019209104 -0.72136003)
(1.5519968 -0.44004413 -0.72136003)
(-1.0038109 0.023544936 -0.72136003)
(-1.0031989 0.024778184 -0.72136003)
(1.5520395 -0.44001713 -0.72136003)
(1.5520152 -0.44003251 -0.72136003)
(-1.0043126 0.022440609 -0.72136003)
(1.5520704 -0.43999758 -0.72136003)
(-1.0022851 0.026567541 -0.72136003)
(-1.0015469 0.02783352 -0.72136003)
(-1.0028181 0.025577286 -0.72136003)
(1.552141 -0.43995258 -0.72136003)
(-1.000556 0.02949005 -0.72136003)
(-0.99968994 0.030768823 -0.72136003)
(1.5522273 -0.43989724 -0.72136003)
(-1.0011126 0.028604461 -0.72136003)
(1.5527647 -0.43955207 -0.72136003)
(1.5524176 -0.43977362 -0.72136003)
(-0.99863505 0.032290895 -0.72136003)
(-0.99763656 0.033570353 -0.72136003)
(-0.9992041 0.031507973 -0.72136003)
(1.5518936 -0.44010898 -0.72136003)
(-0.99654371 0.034942538 -0.72136003)
(-0.99555713 0.036052365 -0.72136003)
(-0.9971016 0.034274235 -0.72136003)
(-0.99503028 0.036658887 -0.72136003)
(-0.97961003 0.053335067 -0.72136003)
(-0.96571112 0.068365932 -0.72136003)
(-0.94827253 0.087224826 -0.72136003)
(-0.94538385 0.090348735 -0.72136003)
(-0.96391624 0.070307024 -0.72136003)
(-0.90262997 0.13658471 -0.72136003)
(-0.79570609 0.25221691 -0.72136003)
(-0.91753536 0.12046532 -0.72136003)
(-0.90487623 0.13415547 -0.72136003)
(-0.9858126 0.046627287 -0.72136003)
(-0.77999049 0.26921242 -0.72136003)
(-0.77666819 0.27280536 -0.72136003)
(-0.93278015 0.10397897 -0.72136003)
(-0.92503548 0.11235438 -0.72136003)
(-0.93668264 0.099758625 -0.72136003)
(-0.59696418 0.46714523 -0.72136003)
(-0.59538746 0.46885031 -0.72136003)
(-0.63036144 0.43102798 -0.72136003)
(-0.62847441 0.43306863 -0.72136003)
(-0.72058952 0.33345127 -0.72136003)
(-0.71407187 0.34049976 -0.72136003)
(-0.76453966 0.28592169 -0.72136003)
(-0.75535792 0.29585123 -0.72136003)
(-0.60228258 0.46139368 -0.72136003)
(-0.60826278 0.45492643 -0.72136003)
(-0.60467845 0.45880264 -0.72136003)
(-0.62228632 0.43976074 -0.72136003)
(-0.61571717 0.4468649 -0.72136003)
(-0.63916016 0.42151263 -0.72136003)
(-0.64868754 0.41120932 -0.72136003)
(-0.64286125 0.41751006 -0.72136003)
(-0.68159795 0.37561855 -0.72136003)
(-0.67604756 0.38162094 -0.72136003)
(-0.73476565 0.3181206 -0.72136003)
(-0.61492485 0.44772178 -0.72136003)
(-0.69395959 0.36225009 -0.72136003)
(-0.70697057 0.34817943 -0.72136003)
(-0.74943876 0.30225244 -0.72136003)
(-0.65894264 0.40011898 -0.72136003)
(-0.66991782 0.38824993 -0.72136003)
(-0.58822387 0.47659737 -0.72136003)
(-0.5878706 0.47697943 -0.72136003)
(-0.59228563 0.4722048 -0.72136003)
(-0.58475518 0.48034856 -0.72136003)
(-0.5821265 0.48319134 -0.72136003)
(-0.58180434 0.48353973 -0.72136003)
(1.5414674 -0.44662526 -0.72136003)
(1.5336708 -0.45149818 -0.72136003)
(6.3438056e-17 0.5021677 -0.72136003)
(0.56681895 0.5021677 -0.72136003)
(-0.51027632 0.5021677 -0.72136003)
(1.1396049 0.5021677 -0.72136003)
(-0.55135226 0.49938723 -0.72136003)
(-0.54503429 0.5001294 -0.72136003)
(-0.53858888 0.50084329 -0.72136003)
(-0.5300014 0.50147998 -0.72136003)
(-0.51492733 0.50208473 -0.72136003)
(-0.52352524 0.50187266 -0.72136003)
(1.5280808 -0.45480126 -0.72136003)
(1.5187302 -0.46024942 -0.72136003)
(1.5129555 -0.4632836 -0.72136003)
(1.5032848 -0.46814138 -0.72136003)
(1.4973733 -0.4708797 -0.72136003)
(1.5071088 -0.46631008 -0.72136003)
(-0.58132803 0.48403734 -0.72136003)
(1.4932917 -0.47271046 -0.72136003)
(1.4874197 -0.47512835 -0.72136003)
(-0.58059001 0.48480827 -0.72136003)
(-0.57958269 0.48575723 -0.72136003)
(1.4711884 -0.48118821 -0.72136003)
(1.4650493 -0.48331848 -0.72136003)
(-0.57804155 0.48720858 -0.72136003)
(-0.57696134 0.48809403 -0.72136003)
(1.4588193 -0.48513818 -0.72136003)
(1.448416 -0.48812178 -0.72136003)
(-0.57584542 0.48902842 -0.72136003)
(1.4421113 -0.48962757 -0.72136003)
(-0.57534021 0.4894228 -0.72136003)
(-0.57419121 0.49023911 -0.72136003)
(1.4315429 -0.49196017 -0.72136003)
(1.4251789 -0.49314949 -0.72136003)
(-0.57321328 0.49095556 -0.72136003)
(1.435541 -0.49115846 -0.72136003)
(-0.57249141 0.4914473 -0.72136003)
(-0.57127821 0.49218905 -0.72136003)
(1.4206657 -0.49393845 -0.72136003)
(1.4144861 -0.49482211 -0.72136003)
(-0.56982505 0.49309042 -0.72136003)
(1.397303 -0.49669936 -0.72136003)
(1.3908685 -0.4972513 -0.72136003)
(-0.56949532 0.49327949 -0.72136003)
(-0.568223 0.49394161 -0.72136003)
(1.3824282 -0.4975709 -0.72136003)
(1.3762819 -0.49779978 -0.72136003)
(-0.56638736 0.49489671 -0.72136003)
(-0.56506133 0.49547446 -0.72136003)
(1.3739046 -0.49781597 -0.72136003)
(-0.56318092 0.4962936 -0.72136003)
(-0.56180704 0.49678269 -0.72136003)
(1.3721271 -0.4978281 -0.72136003)
(-0.56177497 0.49679533 -0.72136003)
(-0.56071699 0.49718896 -0.72136003)
(1.408079 -0.49569321 -0.72136003)
(-0.55988288 0.49746761 -0.72136003)
(-0.55846709 0.49786407 -0.72136003)
(1.4142416 -0.49485534 -0.72136003)
(-0.55651182 0.49841166 -0.72136003)
(-0.55506063 0.49871203 -0.72136003)
(-0.5546186 0.49881586 -0.72136003)
(-0.55139989 0.49938074 -0.72136003)
(-0.55138475 0.49938282 -0.72136003)
(1.4813867 -0.47756508 -0.72136003)
(-0.55141658 0.49937841 -0.72136003)
(-0.55143726 0.49937555 -0.72136003)
(-0.55142653 0.49937704 -0.72136003)
(-0.55144918 0.49937391 -0.72136003)
(-0.55146307 0.49937198 -0.72136003)
(-0.55150068 0.49936667 -0.72136003)
(-0.55148065 0.4993695 -0.72136003)
(-0.55152404 0.49936336 -0.72136003)
(-0.55155796 0.49935853 -0.72136003)
(-0.55160433 0.49935183 -0.72136003)
(-0.55186993 0.4993121 -0.72136003)
(-0.55166507 0.49934298 -0.72136003)
(-0.55310094 0.49911833 -0.72136003)
(-0.5523628 0.4992317 -0.72136003)
(1.3025914 -0.4978281 -0.72136003)
(0.56681883 -0.4978281 -0.72136003)
(-1.5859513e-16 -0.4978281 -0.72136003)
(-0.32564786 -0.4978281 -0.72136003)
(-0.51027632 -0.4978281 -0.72136003)
(-0.51675916 -0.49766684 -0.72136003)
(-0.52822638 -0.49728945 -0.72136003)
(-0.54611403 -0.49567521 -0.72136003)
(-0.5507338 -0.49513063 -0.72136003)
(-0.5346964 -0.49680576 -0.72136003)
(-0.55135226 -0.49504766 -0.72136003)
(-0.55308473 -0.49478149 -0.72136003)
(-0.55506414 -0.49437159 -0.72136003)
(-0.55709273 -0.49392444 -0.72136003)
(-0.55846632 -0.49352473 -0.72136003)
(-0.55651528 -0.49407119 -0.72136003)
(-0.55988204 -0.49312827 -0.72136003)
(-0.56044245 -0.49294412 -0.72136003)
(-0.56182432 -0.49245223 -0.72136003)
(-0.56318033 -0.49195427 -0.72136003)
(-0.56386036 -0.4916757 -0.72136003)
(-0.56519341 -0.49109489 -0.72136003)
(-0.56638849 -0.49055654 -0.72136003)
(-0.56822318 -0.48960191 -0.72136003)
(-0.56982505 -0.48875082 -0.72136003)
(-0.57127839 -0.48784932 -0.72136003)
(-0.5694955 -0.48893979 -0.72136003)
(-0.57273322 -0.48694634 -0.72136003)
(-0.57419157 -0.48589924 -0.72136003)
(-0.57249153 -0.48710757 -0.72136003)
(-0.57534057 -0.48508292 -0.72136003)
(-0.5759272 -0.48462337 -0.72136003)
(-0.57701373 -0.48373273 -0.72136003)
(-0.57804179 -0.48286879 -0.72136003)
(-0.57958275 -0.48141757 -0.72136003)
(-0.58059007 -0.4804686 -0.72136003)
(-0.58132803 -0.47969773 -0.72136003)
(-0.5522756 -0.49490696 -0.72136003)
(-0.55234653 -0.49489489 -0.72136003)
(-0.55153024 -0.49502289 -0.72136003)
(-0.55157477 -0.49501652 -0.72136003)
(-0.55163544 -0.49500772 -0.72136003)
(-0.55146152 -0.49503258 -0.72136003)
(-0.55148059 -0.4950299 -0.72136003)
(-0.55150259 -0.4950268 -0.72136003)
(-0.55144668 -0.49503464 -0.72136003)
(-0.55143577 -0.49503615 -0.72136003)
(-0.55142564 -0.49503759 -0.72136003)
(-0.55178177 -0.49498597 -0.72136003)
(-0.55137801 -0.49504414 -0.72136003)
(-0.55139261 -0.49504212 -0.72136003)
(-0.55140835 -0.49503997 -0.72136003)
(6.4362149e-17 0.53251028 -0.72136003)
(30 -9.5554674e-17 -0.72136003)
(-5 -9.5554674e-17 -0.72136003)
(-1.0889292e-16 -0.53251028 -0.72136003)
(-5 -0.43138611 0.7860238)
(-5 -0.37617788 0.8138904)
(-5 -0.89607316 -0.031309448)
(-5 -0.89609998 0.030533042)
(-5 -0.88325143 -0.15425409)
(-5 -0.89178354 -0.09300299)
(-5 -0.83270603 -0.33245772)
(-5 -0.85364223 -0.27426693)
(-5 -0.62867033 -0.63929731)
(-5 -0.67124295 -0.59444124)
(-5 0.78611618 -0.43121782)
(-5 0.75472891 -0.48405752)
(-5 -0.3191801 0.83788514)
(-5 -0.26066387 0.85789382)
(-5 -0.4845421 0.7544179)
(-5 -0.5836969 0.6806066)
(-5 -0.535393 0.71922302)
(-5 -0.6717577 0.59385937)
(-5 -0.629224 0.63875234)
(-5 -0.87070322 0.21401703)
(-5 -0.85387957 0.2735272)
(-5 -0.87051749 -0.21477138)
(-5 -0.58310699 -0.68111211)
(-5 0.71979564 -0.53462291)
(-5 0.68148053 -0.58267635)
(-5 0.81380987 -0.3763521)
(-5 -0.74705082 0.49582505)
(-5 -0.71109569 0.54614133)
(-5 -0.80814517 0.38836685)
(-5 -0.77945203 0.44315004)
(-5 -0.83299375 0.33173612)
(-5 -0.77906775 -0.44382524)
(-5 -0.80780834 -0.38906693)
(-5 -0.71062225 -0.54675722)
(-5 0.63996345 -0.62799221)
(-5 0.59543961 -0.67035747)
(-5 0.85761428 -0.26158199)
(-5 0.83767998 -0.31971812)
(-5 0.86192858 0.24699497)
(-5 0.87690419 0.18699309)
(-5 0.81976682 0.36319381)
(-5 0.84285253 0.30582184)
(-5 0.76202428 0.47248963)
(-5 0.79278129 0.41883799)
(-5 0.60446179 0.66223365)
(-5 0.648673 0.61899173)
(-5 0.50763661 0.73907548)
(-5 0.55737495 0.70232511)
(-5 0.3449344 0.82761568)
(-5 0.40116304 0.80187011)
(-5 0.22782958 0.86719149)
(-5 0.28706482 0.84942406)
(-5 0.10639454 0.89028513)
(-5 0.16751051 0.88083351)
(-5 -0.20090762 0.87382126)
(-5 -0.14019558 0.88559169)
(-5 -0.88338476 0.15348876)
(-5 -0.74662095 -0.49647215)
(-5 0.87351918 -0.2022168)
(-5 0.89296108 -0.080919549)
(-5 0.88531995 -0.14190154)
(-5 0.88770819 0.12610164)
(-5 0.6897983 0.57280511)
(-5 0.72764206 0.52389354)
(-5 0.45548323 0.77230984)
(-5 -0.017062668 0.89645761)
(-5 0.044772439 0.89550143)
(-5 0.89640665 -0.019557366)
(-5 0.89428908 0.064610295)
(-5 -0.0788166 0.89314914)
(-5 -0.89186376 0.092230283)
(-5 0.54811811 -0.70957309)
(-5 -0.53476965 -0.71968663)
(-5 0.89661998 -4.087902e-16)
(-5 0.89661556 0.0028115755)
(30 0.87690419 0.18699309)
(30 0.86192858 0.24699497)
(30 0.81380987 -0.3763521)
(30 0.83767998 -0.31971812)
(30 0.75472891 -0.48405752)
(30 0.78611618 -0.43121782)
(30 -0.88338476 0.15348876)
(30 -0.89186376 0.092230283)
(30 -0.85387957 0.2735272)
(30 -0.87070322 0.21401703)
(30 0.22782958 0.86719149)
(30 0.16751051 0.88083351)
(30 0.45548323 0.77230984)
(30 0.40116304 0.80187011)
(30 0.648673 0.61899173)
(30 0.60446179 0.66223365)
(30 0.72764206 0.52389354)
(30 0.6897983 0.57280511)
(30 0.81976682 0.36319381)
(30 0.79278129 0.41883799)
(30 0.84285253 0.30582184)
(30 0.85761428 -0.26158199)
(30 0.71979564 -0.53462291)
(30 0.63996345 -0.62799221)
(30 0.68148053 -0.58267635)
(30 0.54811811 -0.70957309)
(30 0.59543961 -0.67035747)
(30 -0.74662095 -0.49647215)
(30 -0.71062225 -0.54675722)
(30 -0.89607316 -0.031309448)
(30 -0.89178354 -0.09300299)
(30 -0.629224 0.63875234)
(30 -0.6717577 0.59385937)
(30 -0.43138611 0.7860238)
(30 -0.4845421 0.7544179)
(30 0.28706482 0.84942406)
(30 0.3449344 0.82761568)
(30 0.55737495 0.70232511)
(30 0.50763661 0.73907548)
(30 -0.77906775 -0.44382524)
(30 -0.83270603 -0.33245772)
(30 -0.80780834 -0.38906693)
(30 -0.87051749 -0.21477138)
(30 -0.85364223 -0.27426693)
(30 -0.89609998 0.030533042)
(30 -0.80814517 0.38836685)
(30 -0.83299375 0.33173612)
(30 -0.74705082 0.49582505)
(30 -0.77945203 0.44315004)
(30 -0.5836969 0.6806066)
(30 -0.37617788 0.8138904)
(30 -0.26066387 0.85789382)
(30 -0.3191801 0.83788514)
(30 -0.0788166 0.89314914)
(30 -0.14019558 0.88559169)
(30 0.10639454 0.89028513)
(30 0.044772439 0.89550143)
(30 0.76202428 0.47248963)
(30 0.87351918 -0.2022168)
(30 0.88531995 -0.14190154)
(30 -0.88325143 -0.15425409)
(30 -0.71109569 0.54614133)
(30 -0.535393 0.71922302)
(30 -0.017062668 0.89645761)
(30 0.89428908 0.064610295)
(30 0.88770819 0.12610164)
(30 -0.20090762 0.87382126)
(30 0.89661556 0.0028115755)
(30 0.89296108 -0.080919549)
(30 -0.67124295 -0.59444124)
(30 -0.62867033 -0.63929731)
(30 -0.58310699 -0.68111211)
(30 0.89661998 1.0980428e-16)
(30 0.89640665 -0.019557366)
(30 -0.53476965 -0.71968663)
(-0.92620635 -0.10674853 -0.38157865)
(-0.9076789 -0.12678494 -0.37959301)
(-0.98874307 -0.039118506 -0.38125724)
(-0.98043585 -0.048102319 -0.3819226)
(-0.95349103 -0.077241622 -0.38276625)
(-0.94819385 -0.082970254 -0.38269654)
(-0.9278971 -0.10492008 -0.38171214)
(-0.96849918 -0.06101118 -0.38254368)
(-0.87115842 -0.16627975 -0.37282062)
(-0.86775482 -0.16996057 -0.37199131)
(-0.84818363 -0.19112572 -0.36654404)
(-0.89870912 -0.13648523 -0.37828463)
(-0.88760871 -0.1484897 -0.37634781)
(-0.84371322 -0.19596024 -0.36513442)
(-0.82895923 -0.21191585 -0.36003208)
(-0.78982037 -0.2542423 -0.34295288)
(-0.77396071 -0.27139366 -0.33444294)
(-0.81654322 -0.22534309 -0.35518742)
(-0.81014276 -0.23226485 -0.35248664)
(-0.79179192 -0.25211024 -0.3439436)
(-0.73851848 -0.30972245 -0.31164134)
(-0.72406173 -0.32535669 -0.30064595)
(-0.76375985 -0.28242531 -0.32843974)
(-0.75669909 -0.29006118 -0.32402834)
(-0.7400524 -0.3080636 -0.31274635)
(-0.69139832 -0.36068034 -0.27143091)
(-0.68036473 -0.37261251 -0.25994575)
(-0.71434551 -0.33586419 -0.29262921)
(-0.70876318 -0.34190115 -0.28777781)
(-0.69418854 -0.35766286 -0.27419367)
(-0.66990554 -0.38392356 -0.24815592)
(-0.66731441 -0.38672572 -0.24508606)
(-0.65505594 -0.3999826 -0.22966594)
(-0.65006465 -0.4053804 -0.22292064)
(-0.64360368 -0.41236752 -0.21373545)
(-0.61604577 -0.44216987 -0.16709237)
(-0.61417776 -0.44419006 -0.16335478)
(-0.63203835 -0.42487481 -0.19582447)
(-0.62315834 -0.43447804 -0.18053479)
(-0.60602945 -0.45300198 -0.14584413)
(-0.60222763 -0.45711342 -0.13687924)
(-0.59871435 -0.46091285 -0.12804127)
(-0.590725 -0.46955284 -0.10537975)
(-0.58658147 -0.47403389 -0.091699265)
(-0.6329686 -0.42386875 -0.19734298)
(-0.59223199 -0.46792316 -0.10998169)
(-0.58180434 -0.47920007 -0.073405892)
(-0.99503028 -0.032319255 -0.38062584)
(1.5709937 0.42287451 -0.063564897)
(1.5693972 0.42600438 -0.053117111)
(1.5723875 0.41959661 -0.073996298)
(1.5734625 0.41650572 -0.083428822)
(1.572441 0.41945645 -0.074431986)
(1.5735304 0.41628641 -0.084084757)
(1.5744543 0.4128556 -0.09413939)
(1.5746727 0.41186994 -0.096961401)
(1.5751301 0.40940568 -0.10390031)
(1.5754906 0.40668747 -0.11137857)
(1.575568 0.40589327 -0.11353194)
(1.5757015 0.40400243 -0.11860575)
(1.5757697 0.40137026 -0.12555487)
(1.5757697 -0.19771375 -0.35072884)
(1.5757697 -0.17115034 -0.36363098)
(1.5757697 -0.14375934 -0.37466782)
(1.5757697 -0.11567152 -0.38378671)
(1.5757697 -0.36630523 -0.18947087)
(1.5757697 -0.35047579 -0.21440095)
(1.5757697 -0.087021023 -0.39094409)
(1.5757697 -0.057944633 -0.39610577)
(1.5757697 -0.028581196 -0.39924711)
(1.5757697 0.00092907524 -0.4003531)
(1.5757697 0.030445272 -0.39941847)
(1.5757697 0.1998567 -0.35188314)
(1.5757697 0.22555062 -0.33732629)
(1.5757697 -0.33296248 -0.23817831)
(1.5757697 -0.31384891 -0.26068944)
(1.5757697 -0.29322636 -0.28182685)
(1.5757697 0.088932328 -0.39145496)
(1.5757697 0.11762391 -0.38446406)
(1.5757697 0.1457642 -0.37550843)
(1.5757697 0.17321883 -0.36463082)
(1.5757697 0.25017789 -0.32102978)
(1.5757697 0.29576781 -0.28353694)
(1.5757697 0.31651276 -0.26251966)
(1.5757697 -0.39261854 -0.13663374)
(1.5757697 -0.38037521 -0.16350715)
(1.5757697 -0.24785493 -0.31958377)
(1.5757697 -0.2233227 -0.33602303)
(1.5757697 0.059826452 -0.39644772)
(1.5757697 0.27362096 -0.30307141)
(1.5736396 -0.41158649 -0.085158363)
(1.5735391 -0.41191849 -0.084168881)
(1.572378 -0.41528109 -0.073920943)
(1.5757697 -0.2711933 -0.30148959)
(1.5710059 -0.41850841 -0.063650861)
(1.5693895 -0.42167851 -0.053069554)
(1.5710274 -0.41846237 -0.063800678)
(1.5752195 -0.40448651 -0.10550909)
(1.5751342 -0.40504047 -0.10397112)
(1.5744509 -0.40853068 -0.09409669)
(1.5757697 -0.39703056 -0.1255548)
(1.5757602 -0.39801192 -0.12297853)
(1.5757697 0.33575672 -0.24011989)
(1.5757697 0.3534078 -0.21644461)
(1.5755674 -0.40155965 -0.1135155)
(1.5757697 0.3960014 -0.13892342)
(1.5757697 0.36938176 -0.19160688)
(1.5757697 0.38360223 -0.16572529)
(-0.99931663 -0.027008593 -0.38018087)
(-0.99920416 -0.027168268 -0.38019192)
(-1.0042509 -0.018242322 -0.37972629)
(-1.0027931 -0.021285668 -0.37985417)
(-1.0054973 -0.015125878 -0.37962118)
(-1.0043126 -0.018100925 -0.37972099)
(-1.0065284 -0.01195748 -0.37953719)
(-1.0055894 -0.014869439 -0.37961355)
(-1.0073528 -0.0087131672 -0.37947211)
(-1.0066422 -0.011558239 -0.37952811)
(-1.0079643 -0.0054059089 -0.3794249)
(-1.0074662 -0.0081828143 -0.37946329)
(-1.0083568 -0.0020491758 -0.3793951)
(-1.0080575 -0.0047589568 -0.37941778)
(-1.0085186 0.00098996051 -0.37938291)
(-1.0084134 -0.001302684 -0.37939081)
(-1.0084134 0.005642354 -0.37939072)
(-1.0084783 0.0045116572 -0.37938586)
(-1.0085323 0.0021698335 -0.37938187)
(-1.0080575 0.0090986313 -0.37941775)
(-1.0082138 0.0078491941 -0.37940583)
(-1.0074662 0.012522497 -0.37946329)
(-1.0077275 0.011176377 -0.37944308)
(-1.0066422 0.015897933 -0.37952816)
(-1.0070184 0.014478899 -0.37949833)
(-1.0055894 0.01920915 -0.37961361)
(-1.0060942 0.01771868 -0.3795723)
(-1.0043126 0.022440661 -0.37972093)
(-1.0049706 0.020856151 -0.37966511)
(-1.0028181 0.025577344 -0.37985185)
(-1.0036393 0.023922587 -0.37977919)
(-1.0011126 0.028604524 -0.38000828)
(-1.002103 0.026906058 -0.37991655)
(-0.99920404 0.031508043 -0.38019201)
(-1.0003659 0.029792653 -0.38007909)
(-0.99710155 0.03427431 -0.38040504)
(-0.99844074 0.032558281 -0.38026804)
(-0.99503028 0.03665892 -0.38062584)
(-0.99635333 0.035170648 -0.38048354)
(-1.001145 -0.024211556 -0.38000524)
(-0.99731839 -0.029666902 -0.38038248)
(-0.95577401 0.079112425 -0.38277245)
(-0.97437614 0.058995251 -0.38228714)
(-0.92850679 0.10860036 -0.38175836)
(-0.93239009 0.10440083 -0.38202834)
(-0.95337051 0.081711642 -0.38276553)
(-0.87347132 0.16811816 -0.37336457)
(-0.89081788 0.14935881 -0.37694415)
(-0.98267913 0.05001599 -0.38176182)
(-0.84601098 0.197815 -0.36586678)
(-0.85025579 0.19322447 -0.36717632)
(-0.87037486 0.17146683 -0.37263277)
(-0.90102291 0.1383227 -0.37864402)
(-0.9115141 0.12697703 -0.38008302)
(-0.60329944 0.46029404 -0.13946548)
(-0.60570884 0.45768839 -0.14510992)
(-0.65165806 0.40799683 -0.22510587)
(-0.65430897 0.40513009 -0.22867487)
(-0.76592183 0.28442699 -0.32974803)
(-0.77431434 0.27535093 -0.33464348)
(-0.81881219 0.22722897 -0.35611132)
(-0.83052838 0.21455857 -0.36060813)
(-0.61373937 0.44900385 -0.16246404)
(-0.61731279 0.44513938 -0.16957565)
(-0.62261283 0.43940768 -0.17954467)
(-0.63347799 0.4276576 -0.19816832)
(-0.64289868 0.41746965 -0.21270004)
(-0.66655707 0.39188445 -0.24417698)
(-0.6716581 0.38636795 -0.25019759)
(-0.67963278 0.37774372 -0.25915062)
(-0.71633446 0.33805293 -0.29431364)
(-0.72365725 0.33013377 -0.30032268)
(-0.7925002 0.25568396 -0.34429604)
(-0.63233244 0.42889646 -0.1963062)
(-0.73985034 0.31262183 -0.31260148)
(-0.75674933 0.29434651 -0.32406056)
(-0.81125659 0.23539995 -0.35296685)
(-0.69352174 0.36272365 -0.27353847)
(-0.70820457 0.34684494 -0.28728211)
(-0.59159482 0.47295195 -0.10805739)
(-0.59215409 0.47234708 -0.10974825)
(-0.59851611 0.46546695 -0.12752487)
(-0.58233476 0.48296621 -0.075610541)
(-0.58661479 0.47833759 -0.091816284)
(-0.58180434 0.48353979 -0.073405981)
(-0.58058769 -0.48047096 -0.068370581)
(-0.57803941 -0.48287079 -0.058293775)
(-0.58058757 0.48481077 -0.068370193)
(-0.57803905 0.48721084 -0.058292445)
(2.0157025 -0.039002154 0.17373632)
(2.0157025 -0.028770458 0.17622934)
(2.0157025 -0.0079134116 0.17906921)
(2.0157025 0.0026123479 0.1794025)
(2.0157025 -0.05882784 0.16666359)
(2.0157025 -0.049037252 0.17054266)
(2.0157025 -0.018391024 0.17800981)
(2.0157025 0.02360728 0.17788787)
(2.0157025 0.033976201 0.17604716)
(2.0157025 -0.12878142 0.1049616)
(2.0157025 -0.12308496 0.11381897)
(2.0157025 -0.10252999 0.13774474)
(2.0157025 -0.094632201 0.14471091)
(2.0157025 0.013135995 0.1790081)
(2.0157025 0.054209631 0.17024289)