/*--------------------------------*- C++ -*----------------------------------*\
| =========                 |                                                 |
| \\      /  F ield         | OpenFOAM: The Open Source CFD Toolbox           |
|  \\    /   O peration     | Version:  3.0.1                                 |
|   \\  /    A nd           | Web:      www.OpenFOAM.org                      |
|    \\/     M anipulation  |                                                 |
\*---------------------------------------------------------------------------*/
FoamFile
{
    version     2.0;
    format      ascii;
    class       extendedFeatureEdgeMesh;
    location    "constant/extendedFeatureEdgeMesh";
    object      geom.extendedFeatureEdgeMesh;
}
// * * * * * * * * * * * * * * * * * * * * * * * * * * * * * * * * * * * * * //

// points

291
(
(-10 -0.53251028 -0.72136003)
(-10 0.53251028 -0.72136003)
(25 0.53251028 -0.72136003)
(25 -0.53251028 -0.72136003)
(1.5336708 0.45583779 -0.72136003)
(1.5518936 0.44444859 -0.72136003)
(1.4905777 0.47821027 -0.72136003)
(1.5177226 0.46514571 -0.72136003)
(1.4621328 0.48857561 -0.72136003)
(1.4326506 0.49609828 -0.72136003)
(1.3721271 0.5021677 -0.72136003)
(1.402414 0.50065923 -0.72136003)
(1.5755706 0.40586355 -0.72135997)
(1.5757697 0.4013702 -0.72136003)
(1.5744579 0.41283989 -0.72135997)
(1.5723882 0.41959441 -0.72135997)
(1.5694015 0.42599648 -0.72136003)
(1.5655555 0.43192232 -0.72136003)
(1.5609246 0.43725732 -0.72136003)
(1.5555984 0.44189826 -0.72136003)
(1.5757697 -8.0087051e-17 -0.72136003)
(1.5757697 -0.39703062 -0.72136003)
(1.5609246 -0.43291771 -0.72135997)
(1.5555984 -0.43755868 -0.72135997)
(1.5744579 -0.40850028 -0.72136003)
(1.5723882 -0.4152548 -0.72136003)
(1.5755706 -0.40152395 -0.72136003)
(1.5694015 -0.42165691 -0.72135997)
(1.5655555 -0.42758274 -0.72135997)
(1.5518936 -0.44010898 -0.72136003)
(1.5336708 -0.45149818 -0.72136003)
(1.4205276 -0.49396071 -0.72136003)
(1.3905843 -0.49726874 -0.72135997)
(1.4791303 -0.47842854 -0.72136003)
(1.4501424 -0.48767477 -0.72136003)
(1.5071881 -0.46627089 -0.72136003)
(1.3721271 -0.4978281 -0.72136003)
(-0.51027632 0.5021677 -0.72136003)
(5.5751814e-17 0.5021677 -0.72136003)
(-0.55135226 0.49938723 -0.72136003)
(-0.53084171 0.50147313 -0.72136003)
(-5.5270021e-17 -0.4978281 -0.72136003)
(-0.51027632 -0.4978281 -0.72136003)
(-0.53084171 -0.49713352 -0.72136003)
(-0.55135226 -0.49504766 -0.72136003)
(-0.57848144 -0.48247784 -0.72136003)
(-0.58180434 -0.47920012 -0.72136003)
(-0.57345033 -0.48645893 -0.72136003)
(-0.56795752 -0.48977414 -0.72136003)
(-0.56209069 -0.49237058 -0.72136003)
(-0.55594337 -0.49420685 -0.72136003)
(-0.99503028 -0.032319285 -0.72136003)
(-0.99710172 0.034274116 -0.72136003)
(-0.99503028 0.036658887 -0.72136003)
(-1.0011126 0.028604366 -0.72136003)
(-1.0043128 0.022440545 -0.72136003)
(-1.0066422 0.015897853 -0.72136003)
(-1.0080575 0.0090985782 -0.72135997)
(-1.0085323 0.0021698009 -0.72135997)
(-1.0080575 -0.0047589759 -0.72136003)
(-1.0084859 -8.0087051e-17 -0.72136003)
(-0.99710172 -0.029934512 -0.72135997)
(-1.0011126 -0.024264764 -0.72135997)
(-1.0043128 -0.018100943 -0.72136003)
(-1.0066422 -0.011558251 -0.72136003)
(-0.58180434 0.48353973 -0.72136003)
(-0.57848144 0.48681745 -0.72136003)
(-0.57345033 0.49079853 -0.72136003)
(-0.56795752 0.49411374 -0.72136003)
(-0.56209069 0.49671018 -0.72136003)
(-0.55594337 0.49854645 -0.72136003)
(-1.0889292e-16 -0.53251028 -0.72136003)
(-10 -9.5554674e-17 -0.72136003)
(6.4362149e-17 0.53251028 -0.72136003)
(25 -9.5554674e-17 -0.72136003)
(-10 0.65766126 0.60943341)
(-10 0.73415589 0.51472574)
(-10 0.56904221 0.69290578)
(-10 0.46993241 0.76360393)
(-10 -0.2336387 0.86564451)
(-10 -0.1142206 0.88931495)
(-10 -0.85013503 -0.28495231)
(-10 -0.88089967 -0.16716219)
(-10 0.80043328 -0.40402234)
(-10 0.74203604 -0.50329906)
(-10 0.3621591 0.82022446)
(-10 -0.34874952 0.82601523)
(-10 -0.55767918 0.70208359)
(-10 -0.45743087 0.77115786)
(-10 -0.80369759 -0.39748913)
(-10 0.845622 -0.29807857)
(-10 0.89362174 -0.073264167)
(-10 0.87685663 -0.18721606)
(-10 0.7971158 0.41052869)
(-10 0.84538037 0.29876328)
(-10 0.24770913 0.8617236)
(-10 -0.87498671 0.19576953)
(-10 -0.84040129 0.31249496)
(-10 -0.74244338 -0.50269794)
(-10 -0.58025414 -0.6835441)
(-10 -0.66750169 -0.59863919)
(-10 0.87805969 0.18148994)
(-10 0.12869245 0.88733625)
(-10 -0.64764625 0.62006593)
(-10 -0.79032248 0.42345932)
(-10 -0.72567356 0.52661687)
(-10 -0.89344108 0.075434953)
(-10 0.67139405 -0.59427053)
(-10 -0.89542425 -0.046290319)
(-10 0.58967298 -0.6754356)
(-10 0.0073032491 0.89659023)
(-10 0.89661998 -4.087902e-16)
(-10 0.8945514 0.060870714)
(25 0.46993241 0.76360393)
(25 0.3621591 0.82022446)
(25 0.56904221 0.69290578)
(25 0.65766126 0.60943341)
(25 0.73415589 0.51472574)
(25 0.87805969 0.18148994)
(25 0.84538037 0.29876328)
(25 0.80043328 -0.40402234)
(25 0.845622 -0.29807857)
(25 0.24770913 0.8617236)
(25 0.7971158 0.41052869)
(25 0.74203604 -0.50329906)
(25 -0.80369759 -0.39748913)
(25 -0.74244338 -0.50269794)
(25 -0.89344108 0.075434953)
(25 -0.89542425 -0.046290319)
(25 -0.84040129 0.31249496)
(25 -0.87498671 0.19576953)
(25 -0.64764625 0.62006593)
(25 -0.72567356 0.52661687)
(25 -0.45743087 0.77115786)
(25 -0.55767918 0.70208359)
(25 0.87685663 -0.18721606)
(25 0.58967298 -0.6754356)
(25 0.67139405 -0.59427053)
(25 -0.66750169 -0.59863919)
(25 -0.88089967 -0.16716219)
(25 -0.85013503 -0.28495231)
(25 -0.2336387 0.86564451)
(25 -0.34874952 0.82601523)
(25 0.12869245 0.88733625)
(25 -0.79032248 0.42345932)
(25 -0.1142206 0.88931495)
(25 0.8945514 0.060870714)
(25 0.0073032491 0.89659023)
(25 0.89661998 1.0980428e-16)
(25 0.89362174 -0.073264167)
(25 -0.58025414 -0.6835441)
(1.5744437 0.41290125 -0.096007854)
(1.5739133 0.41497737 -0.089965776)
(1.5723445 0.41970852 -0.075647868)
(1.5693421 0.42610344 -0.054777596)
(1.5755608 0.40597254 -0.11531761)
(1.5757697 0.40137026 -0.12755488)
(1.5757697 -0.14375934 -0.37666783)
(1.5757697 -0.087021023 -0.3929441)
(1.5757697 -0.19771375 -0.35272884)
(1.5757697 0.1457642 -0.37750843)
(1.5757697 0.1998567 -0.35388315)
(1.5757697 0.030445272 -0.40141848)
(1.5757697 0.088932328 -0.39345494)
(1.5757697 -0.028581196 -0.40124711)
(1.5757697 -0.24785493 -0.32158378)
(1.5757697 0.36938176 -0.19360688)
(1.5757697 0.3960014 -0.14092343)
(1.5757697 0.29576781 -0.28553694)
(1.5757697 0.33575672 -0.24211989)
(1.5757697 0.25017789 -0.32302979)
(1.5757697 -0.29322636 -0.28382686)
(1.5757697 -0.36630523 -0.19147088)
(1.5757697 -0.33296248 -0.24017832)
(1.5757697 -0.39703056 -0.1275548)
(1.5757697 -0.39261854 -0.13863373)
(1.5693359 -0.42177474 -0.054739691)
(1.5723839 -0.41526699 -0.075965002)
(1.5725297 -0.41488317 -0.077156462)
(1.5744153 -0.4086827 -0.095658764)
(1.5755563 -0.40168297 -0.11518185)
(-0.58180434 -0.47920007 -0.075405896)
(-0.57847619 -0.4824827 -0.061979353)
(-0.87390941 -0.16330466 -0.37546581)
(-0.87116492 -0.1662727 -0.3748222)
(-0.82340813 -0.21791904 -0.35992953)
(-0.81657827 -0.22530518 -0.35720181)
(-0.92600673 -0.10696439 -0.38356239)
(-0.77561975 -0.26959956 -0.33737919)
(-0.76384759 -0.28233048 -0.33049318)
(-0.73151809 -0.31729305 -0.30845073)
(-0.71448141 -0.33571726 -0.294745)
(-0.69189227 -0.36014614 -0.27392402)
(-0.67003489 -0.38378364 -0.25030759)
(-0.60966617 -0.44906905 -0.15592025)
(-0.60227597 -0.45706114 -0.13899694)
(-0.63094473 -0.42605752 -0.19602032)
(-0.65807921 -0.39671305 -0.2356143)
(-0.99503028 -0.032319255 -0.38262585)
(-0.9785018 -0.050193928 -0.38405001)
(-0.59348708 -0.46656585 -0.1156858)
(-1.0011123 0.028604927 -0.38200831)
(-1.0023564 0.026446544 -0.38189349)
(-1.0043129 0.022441033 -0.38172093)
(-1.0051478 0.020401884 -0.38165027)
(-1.0066421 0.015898075 -0.38152817)
(-1.0071453 0.013959203 -0.38148835)
(-1.0080577 0.0090987226 -0.38141775)
(-1.0082688 0.007340611 -0.38140166)
(-1.0085324 0.0021698491 -0.38138187)
(-1.0085186 0.00098996051 -0.38138291)
(-1.00837 -0.0018868815 -0.38139409)
(-1.0080575 -0.0047590421 -0.38141778)
(-1.0073903 -0.0085413884 -0.38146919)
(-1.0066425 -0.011558525 -0.38152811)
(-1.0055628 -0.014944708 -0.38161579)
(-1.0043125 -0.018101253 -0.38172099)
(-1.0028665 -0.021144031 -0.38184759)
(-1.0011123 -0.024265252 -0.38200831)
(-0.99942821 -0.026849268 -0.3821699)
(-0.99874872 0.032141227 -0.3822372)
(-0.99503028 0.03665892 -0.38262585)
(-0.92848545 0.10862347 -0.38375676)
(-0.93984991 0.096333444 -0.38442975)
(-0.98262048 0.050079405 -0.3837662)
(-0.8734917 0.1680961 -0.37536931)
(-0.88322914 0.15756559 -0.37748602)
(-0.82885736 0.21636569 -0.36199445)
(-0.77807856 0.2712802 -0.33874673)
(-0.81886435 0.2271726 -0.35813236)
(-0.73193121 0.32118595 -0.30876395)
(-0.76601517 0.28432602 -0.3318041)
(-0.69117171 0.36526507 -0.27320418)
(-0.71647018 0.33790618 -0.29642773)
(-0.62744027 0.43418705 -0.19009501)
(-0.63356924 0.4275589 -0.20031573)
(-0.65627056 0.40300873 -0.23326434)
(-0.6718021 0.3862122 -0.25236413)
(-0.60729611 0.45597184 -0.1507089)
(-0.59095269 0.47364634 -0.1080866)
(-0.60333478 0.46025577 -0.14155002)
(-0.58180434 0.48353979 -0.075405985)
(-0.57847619 0.48682243 -0.061979443)
(2.0157025 0.091331124 0.14859939)
(2.0157025 0.10751101 0.13513491)
(2.0157025 -0.11679041 0.1202618)
(2.0157025 -0.10252999 0.13574474)
(2.0157025 -0.13827425 0.084174164)
(2.0157025 -0.12878142 0.10296159)
(2.0157025 -0.11734156 -0.069563113)
(2.0157025 -0.1292319 -0.052193575)
(2.0157025 -0.06911055 -0.10969971)
(2.0157025 -0.086991385 -0.098593093)
(2.0157025 0.072666898 -0.11011136)
(2.0157025 0.053376991 -0.11853636)
(2.0157025 0.13357164 0.10219987)
(2.0157025 0.14295521 0.08335764)
(2.0157025 0.07345029 0.15970601)
(2.0157025 -0.068327159 0.16011766)
(2.0157025 -0.049037252 0.16854265)
(2.0157025 -0.10317127 -0.085128605)
(2.0157025 -0.049869891 -0.11823659)
(2.0157025 -0.008796257 -0.12700179)
(2.0157025 -0.029636461 -0.12404086)
(2.0157025 0.090611927 -0.099108748)
(2.0157025 0.12113015 -0.070255503)
(2.0157025 0.10686973 -0.085738443)
(2.0157025 0.149653 0.063402168)
(2.0157025 0.1216813 0.11956941)
(2.0157025 0.033976201 0.17404716)
(2.0157025 0.054209631 0.16824289)
(2.0157025 -0.028770458 0.17422934)
(2.0157025 -0.0079134116 0.17706922)
(2.0157025 -0.086272188 0.14911504)
(2.0157025 -0.13861547 -0.033351339)
(2.0157025 -0.14531326 -0.013395867)
(2.0157025 0.01225315 -0.12706292)
(2.0157025 0.013135995 0.17700809)
(2.0157025 -0.14909211 0.043592811)
(2.0157025 -0.14508781 0.06425792)
(2.0157025 0.033110198 -0.12422304)
(2.0157025 0.14261399 -0.034167867)
(2.0157025 0.13312116 -0.052955296)
(2.0157025 0.15343185 0.0064134896)
(2.0157025 0.14942755 -0.014251623)
(2.0157025 -0.15022948 0.025445629)
(2.0157025 0.15456922 0.024560671)
(2.0157025 0.15353724 0.042714152)
(2.0157025 -0.1491975 0.0072921487)
(-0.55135226 0.49938732 0.02355952)
(-0.55136853 0.49938509 0.023558725)
)

// edges

290
(
(4 5)
(6 7)
(8 6)
(9 8)
(10 11)
(11 9)
(7 4)
(12 13)
(14 12)
(15 14)
(16 15)
(17 16)
(18 17)
(19 18)
(5 19)
(13 20)
(20 21)
(22 23)
(24 25)
(21 26)
(26 24)
(25 27)
(27 28)
(28 22)
(23 29)
(29 30)
(31 32)
(33 34)
(35 33)
(30 35)
(34 31)
(32 36)
(37 38)
(38 10)
(39 40)
(40 37)
(36 41)
(41 42)
(42 43)
(43 44)
(45 46)
(47 45)
(48 47)
(49 48)
(50 49)
(44 50)
(46 51)
(52 53)
(54 52)
(55 54)
(56 55)
(57 56)
(58 57)
(59 60)
(51 61)
(61 62)
(62 63)
(63 64)
(64 59)
(60 58)
(53 65)
(65 66)
(66 67)
(67 68)
(68 69)
(69 70)
(70 39)
(71 0)
(0 72)
(1 73)
(72 1)
(73 2)
(2 74)
(3 71)
(74 3)
(75 76)
(77 75)
(78 77)
(79 80)
(81 82)
(83 84)
(85 78)
(86 79)
(87 88)
(89 81)
(90 83)
(91 92)
(93 94)
(95 85)
(88 86)
(96 97)
(98 89)
(99 100)
(92 90)
(94 101)
(102 95)
(103 87)
(104 105)
(106 96)
(100 98)
(84 107)
(76 93)
(105 103)
(108 106)
(82 108)
(107 109)
(110 102)
(97 104)
(111 91)
(101 112)
(0 99)
(112 111)
(109 1)
(80 110)
(113 114)
(115 113)
(116 115)
(117 116)
(118 119)
(120 121)
(114 122)
(119 123)
(124 120)
(125 126)
(127 128)
(129 130)
(131 132)
(133 134)
(123 117)
(121 135)
(136 137)
(126 138)
(139 140)
(130 127)
(134 131)
(141 142)
(122 143)
(137 124)
(140 125)
(144 129)
(132 144)
(145 141)
(146 118)
(2 136)
(128 139)
(147 145)
(148 146)
(135 149)
(150 3)
(142 133)
(149 148)
(138 150)
(143 147)
(151 152)
(153 154)
(152 153)
(155 151)
(156 155)
(157 158)
(159 157)
(160 161)
(162 163)
(158 164)
(165 159)
(166 167)
(168 169)
(161 170)
(164 162)
(171 165)
(172 173)
(169 166)
(163 160)
(173 171)
(174 175)
(170 168)
(175 172)
(167 156)
(176 177)
(177 178)
(178 179)
(179 180)
(180 174)
(181 182)
(183 184)
(185 186)
(187 183)
(188 189)
(184 185)
(190 191)
(186 188)
(192 193)
(189 190)
(194 195)
(191 192)
(196 194)
(193 197)
(198 199)
(195 200)
(199 187)
(197 196)
(200 181)
(201 202)
(203 204)
(205 206)
(207 208)
(209 210)
(211 212)
(210 211)
(213 214)
(212 213)
(215 216)
(214 215)
(217 218)
(216 217)
(218 219)
(219 198)
(208 209)
(206 207)
(204 205)
(202 203)
(220 201)
(221 220)
(222 223)
(223 224)
(225 226)
(226 222)
(227 225)
(228 229)
(229 227)
(230 231)
(231 228)
(232 233)
(234 235)
(233 230)
(236 237)
(238 234)
(239 240)
(237 232)
(240 238)
(235 236)
(241 239)
(224 221)
(242 241)
(243 244)
(245 246)
(247 248)
(249 250)
(251 252)
(253 254)
(255 256)
(257 243)
(258 259)
(248 245)
(260 249)
(261 251)
(262 263)
(264 253)
(265 266)
(256 267)
(244 268)
(269 270)
(271 272)
(246 273)
(273 258)
(274 275)
(252 260)
(276 262)
(266 264)
(268 255)
(277 269)
(259 271)
(278 279)
(250 274)
(280 276)
(254 280)
(281 282)
(283 284)
(270 257)
(279 247)
(263 261)
(284 281)
(272 277)
(282 265)
(285 278)
(286 283)
(267 287)
(275 288)
(288 285)
(287 286)
(289 290)
)

// concaveStart mixedStart nonFeatureStart
4 4 4
// internalStart flatStart openStart multipleStart
243 290 290 290
// normals

572
(
(-0.52999695 -0.84799955 6.7841063e-08)
(0 0 -1)
(-0.43367528 -0.90106923 4.0831146e-06)
(0 0 -1)
(-0.34237723 -0.93956244 0.00050493398)
(0 0 -1)
(-0.24723791 -0.9689547 0.00045248926)
(0 0 -1)
(-0.049744486 -0.99876188 0.00042914573)
(0 0 -1)
(-0.14915458 -0.98881379 0.00045592163)
(0 0 -1)
(-0.50406568 -0.8636653 0.00018599321)
(0 0 -1)
(-0.99901996 -0.044261888 4.4428953e-09)
(-7.424577e-08 1.3261773e-05 -1)
(-0.98751812 -0.15750544 1.2396676e-05)
(-2.5423582e-09 -4.0549661e-10 -1)
(-0.95612059 -0.2929734 7.0588791e-06)
(-2.540453e-09 -7.7844275e-10 -1)
(-0.90623551 -0.42277322 1.348025e-05)
(4.2233956e-08 -9.290504e-06 -1)
(-0.83881488 -0.54441675 1.2652348e-05)
(0 0 -1)
(-0.75518902 -0.65550709 2.8840466e-06)
(0 0 -1)
(-0.65693581 -0.75394652 5.4897442e-06)
(0 0 -1)
(-0.5670259 -0.82369996 -9.9360671e-05)
(0 0 -1)
(-1 0 0)
(0 0 -1)
(-1 0 -0)
(0 0 -1)
(-0.65693819 0.75394441 0.00016964451)
(-2.5306202e-09 2.9043021e-09 -1)
(-0.95612059 0.2929734 4.1001435e-05)
(0 0 -1)
(-0.99901995 0.044262181 -4.4429241e-09)
(0 0 -1)
(-0.98751812 0.15750544 1.8015781e-05)
(0 0 -1)
(-0.90623627 0.42277161 1.958618e-06)
(-4.6488933e-08 -9.2884757e-06 -1)
(-0.83881488 0.54441675 1.3735256e-05)
(-2.5360931e-09 1.6460027e-09 -1)
(-0.75518721 0.65550918 7.5886245e-06)
(-2.5336162e-09 2.1992013e-09 -1)
(-0.56702141 0.82370306 -7.5816796e-08)
(9.1575521e-08 2.3238555e-05 -1)
(-0.52999695 0.84799955 -1.0176158e-07)
(0 0 -1)
(-0.10980857 0.99395263 0.00049924705)
(-2.9027968e-08 -1.7755428e-05 -1)
(-0.30388438 0.95270885 0.00036740143)
(0 0 -1)
(-0.39758713 0.9175644 0.00021970983)
(0 0 -1)
(-0.48715671 0.87331457 -1.0479943e-07)
(0 0 -1)
(-0.20763084 0.97820715 0.00046306629)
(0 0 -1)
(-0.030291716 0.9995411 -7.9979014e-08)
(1.4918639e-07 0.00010163596 -0.99999999)
(0 -1 8.0015742e-08)
(0 0 -1)
(0 -1 8.0015742e-08)
(0 0 -1)
(0.10117671 -0.99486844 0.0002326796)
(-0 0 -1)
(0.033754628 -0.99943013 0.00018371995)
(-0 0 -1)
(0 1 -8.0015733e-08)
(0 0 -1)
(0 1 -8.0015733e-08)
(0 0 -1)
(0.033754629 0.99943015 -7.9970136e-08)
(0 0 -1)
(0.10117528 0.99486859 0.00023250203)
(0 0 -1)
(0.70225028 0.71193015 -6.5692503e-08)
(0 -0 -1)
(0.62052303 0.78418822 8.4115283e-07)
(0 -0 -1)
(0.5167319 0.85614727 -1.6699383e-06)
(0 0 -1)
(0.40470101 0.91444906 4.0785568e-07)
(0 0 -1)
(0.28621408 0.95816569 -1.5310022e-07)
(0 0 -1)
(0.18014336 0.98364037 -5.6465428e-07)
(0 0 -1)
(0.73421313 0.67891905 -1.5084784e-07)
(0 0 -1)
(0.75496178 -0.6557688 6.4907422e-08)
(0 0 -1)
(0.8163786 -0.57751699 0.00033260026)
(-0 0 -1)
(0.88751209 -0.46078443 1.377399e-07)
(-0 0 -1)
(0.94207015 -0.33541591 8.1260034e-07)
(-0 0 -1)
(0.97901671 -0.20377997 -2.1051318e-07)
(-4.9762078e-07 -8.6627449e-06 -1)
(0.99766024 -0.068366991 7.2874107e-07)
(6.6291325e-09 -4.5427674e-10 -1)
(0.995972 0.089664761 1.7441151e-08)
(0 -0 -1)
(0.75496203 0.65576851 -5.769546e-08)
(-1.3244108e-06 2.3843451e-05 -1)
(0.8163785 0.57751712 0.00034645391)
(6.3690879e-09 4.5055783e-09 -1)
(0.88751209 0.46078443 3.9102309e-08)
(5.370299e-07 -9.3912623e-06 -1)
(0.94207015 0.33541591 -3.5595653e-07)
(0 0 -1)
(0.97901672 0.20377995 8.510458e-07)
(0 -0 -1)
(0.9997717 0.021366856 3.3836231e-05)
(-4.6373054e-23 2.7470098e-05 -1)
(0.73421313 -0.67891905 1.0852421e-08)
(-0 0 -1)
(0.70225028 -0.71193015 6.5692512e-08)
(0 0 -1)
(0.62052303 -0.78418822 9.8292619e-07)
(0 0 -1)
(0.5167319 -0.85614727 -1.5193741e-06)
(0 0 -1)
(0.40470101 -0.91444906 1.8487889e-07)
(-0 0 -1)
(0.28621408 -0.95816569 -1.8169719e-06)
(-0 0 -1)
(0.18013719 -0.9836415 -3.5772642e-06)
(-0 0 -1)
(0 -0 -1)
(0 -0.62089175 -0.78389631)
(0 0 -1)
(-1 0 0)
(0 0 -1)
(0 0.62630916 -0.77957478)
(6.6286728e-09 0 -1)
(-1 0 0)
(0 0 -1)
(0 0.62630916 -0.77957478)
(0 0 -1)
(1 0 0)
(0 0 -1)
(0 -0.62089175 -0.78389631)
(0 0 -1)
(1 0 0)
(-1 0 0)
(0 0.77794126 0.628337)
(-1 0 0)
(0 0.68565301 0.72792853)
(-1 0 0)
(0 0.5807237 0.81410072)
(-1 0 0)
(0 -0.19443206 0.98091599)
(-1 0 0)
(-0 -0.96754343 -0.25270477)
(-1 0 0)
(0 0.86193739 -0.50701472)
(-1 0 0)
(0 0.46508858 0.88526415)
(-1 0 0)
(0 -0.32552004 0.94553514)
(-1 0 0)
(0 -0.56738505 0.82345261)
(-1 0 0)
(-0 -0.92439225 -0.38144327)
(-1 0 0)
(0 0.91982188 -0.39233622)
(-1 0 0)
(0 0.98934978 -0.14555761)
(-1 0 0)
(0 0.9180557 0.39645142)
(-1 0 0)
(0 0.34087934 0.94010706)
(-1 0 -0)
(0 -0.45060575 0.89272306)
(-1 0 0)
(0 -0.95879788 0.28408911)
(-1 0 0)
(-0 -0.86419905 -0.50315009)
(-1 0 0)
(-0 -0.69741994 -0.7166627)
(-1 0 0)
(0 0.96252742 -0.27118438)
(-1 0 -0)
(0 0.96329857 0.26843223)
(-1 0 0)
(0 0.21038566 0.97761847)
(-1 0 0)
(0 -0.67370389 0.7390014)
(-1 0 0)
(0 -0.84734993 0.53103493)
(-1 0 0)
(0 -0.98844398 0.15158663)
(-1 0 0)
(-0 -0.7880738 -0.61558077)
(-1 0 0)
(0 0.78982992 -0.61332593)
(-1 0 -0)
(0 0.85588819 0.5171609)
(-1 0 0)
(0 -0.76760246 0.64092625)
(-1 0 0)
(0 -0.99986731 0.016289983)
(-0 -0.99285744 -0.1193068)
(-1 0 0)
(0 0.70468905 -0.70951627)
(-1 0 0)
(0 0.076013395 0.9971068)
(-1 0 0)
(0 -0.91147572 0.41135388)
(-1 0 0)
(0 0.99916368 -0.040889366)
(-1 0 -0)
(0 0.99078212 0.13546507)
(-1 0 0)
(-0 -0.62089175 -0.78389631)
(-1 0 -0)
(-1.0974938e-18 0.99942307 0.033963554)
(-1 0 -0)
(0 -0.059760129 0.99821277)
(1 0 0)
(-0 0.46508858 0.88526415)
(1 0 0)
(-0 0.5807237 0.81410072)
(1 0 0)
(-0 0.68565301 0.72792853)
(1 0 0)
(-0 0.77794126 0.628337)
(1 0 0)
(-0 0.96329857 0.26843223)
(1 0 0)
(0 0.91982188 -0.39233622)
(1 0 0)
(-0 0.34087934 0.94010706)
(1 0 0)
(-0 0.9180557 0.39645142)
(1 0 0)
(0 0.86193739 -0.50701472)
(1 0 0)
(0 -0.86419905 -0.50315009)
(1 0 0)
(0 -0.99986731 0.016289983)
(1 0 0)
(0 -0.95879788 0.28408911)
(1 0 0)
(0 -0.76760246 0.64092625)
(1 0 0)
(0 -0.56738505 0.82345261)
(1 0 0)
(-0 0.85588819 0.5171609)
(1 0 -0)
(0 0.96252742 -0.27118438)
(1 0 0)
(0 0.70468905 -0.70951627)
(1 -0 0)
(0 -0.7880738 -0.61558077)
(1 0 0)
(0 -0.96754343 -0.25270477)
(1 -0 0)
(0 -0.98844398 0.15158663)
(1 0 0)
(0 -0.67370389 0.7390014)
(1 0 0)
(0 -0.32552004 0.94553514)
(1 0 0)
(-0 0.21038566 0.97761847)
(1 0 -0)
(0 0.78982992 -0.61332593)
(1 -0 0)
(0 -0.92439225 -0.38144327)
(1 0 0)
(0 -0.91147572 0.41135388)
(0 -0.84734993 0.53103493)
(1 0 0)
(0 -0.19443206 0.98091599)
(1 0 0)
(-0 0.99078212 0.13546507)
(0 0.62630916 -0.77957478)
(1 -0 0)
(0 -0.99285744 -0.1193068)
(1 0 0)
(0 -0.059760129 0.99821277)
(1 0 0)
(-0 0.99942307 0.033963554)
(1 0 -0)
(0 0.98934978 -0.14555761)
(1 0 0)
(1 0 0)
(0 -0.45060575 0.89272306)
(1 0 -0)
(3.1968254e-19 0.99916368 -0.040889366)
(1 -0 0)
(0 -0.69741994 -0.7166627)
(1 0 0)
(-0 0.076013395 0.9971068)
(-0.96852181 -0.24892818 0.0005192383)
(-0.53001879 -0.81518112 0.23358044)
(-0.90521407 -0.42495587 -1.2430024e-05)
(-0.53063388 -0.82878309 0.17761273)
(-0.94918669 -0.31471357 -8.5187276e-06)
(-0.5317175 -0.81979564 0.2126302)
(-0.98725358 -0.15915515 -6.7783436e-06)
(-0.53009202 -0.80740223 0.25904457)
(-0.99897284 -0.045312876 -7.9641339e-06)
(-0.53076881 -0.79621563 0.29038792)
(-1 0 0)
(-0.52908815 0.23398731 0.81566884)
(-1 0 0)
(-0.52908817 0.34414635 0.77564747)
(-1 0 0)
(-0.52908815 -0.33963665 0.77763274)
(-1 0 0)
(-0.52908814 -0.11448366 0.84080868)
(-1 0 0)
(-0.52908816 0.11936399 0.84012972)
(-1 0 0)
(-0.52908815 0.44774081 0.72082862)
(-1 0 0)
(-0.52908816 -0.75737643 0.3826835)
(-1 0 0)
(-0.52908815 -0.62416268 0.57487971)
(-1 0 0)
(-0.52908815 -0.44354735 0.72341653)
(-1 0 0)
(-0.52908817 0.002463516 0.84856328)
(-1 0 0)
(-0.52908815 0.54279285 0.65225889)
(-1 0 0)
(-0.52908815 0.70021713 0.47933465)
(-1 0 0)
(-0.52908816 -0.69742184 0.4833927)
(-1 0 0)
(-0.52908814 -0.22924667 0.81701389)
(-1 0 -0)
(-0.52908815 0.62749042 0.57124557)
(-1 0 0)
(-0.52996191 0.78784649 0.31374875)
(-1 0 0)
(-0.52908814 -0.53899624 0.65539972)
(-1 0 -0)
(-0.52908816 0.75958565 0.37827948)
(-1 0 0)
(-0.52994484 -0.78694211 0.3160389)
(-0.90561382 0.4241033 -1.4102515e-05)
(-0.53074453 0.82866017 0.17785547)
(-0.93483175 0.35509096 4.9023361e-07)
(-0.53155446 0.82304947 0.20009854)
(-0.95671953 0.29101158 1.9770679e-05)
(-0.52985362 0.8189387 0.2204417)
(-0.98698354 0.16082128 -2.0244077e-05)
(-0.53014591 0.80752689 0.25854521)
(-0.99895125 0.045786537 -1.1562441e-05)
(-0.53087646 0.79620216 0.29022803)
(0.70222317 0.7119569 -3.4089284e-07)
(0.19634723 0.9626008 0.18667475)
(0.7342161 0.67891584 -2.4541674e-06)
(0.19611503 0.37758381 0.90496926)
(0.73421449 0.67891758 1.8828057e-06)
(0.19610918 0.49413056 0.84698063)
(0.73421264 0.67891959 1.7560747e-07)
(0.19583091 0.31456191 0.92881702)
(0.73421304 0.67891915 -9.6781628e-08)
(0.19609382 0.60058913 0.77513864)
(0.73421329 0.67891888 1.4596965e-07)
(0.19605806 0.43474617 0.87895222)
(0.73421308 0.67891911 -2.8493209e-08)
(0.19606195 0.69551298 0.69124627)
(0.7342132 0.67891898 7.215704e-08)
(0.19600326 0.54581754 0.81465695)
(0.73421274 0.67891948 -2.4953324e-07)
(0.19600339 0.77783406 0.59712381)
(0.73421322 0.67891896 8.3150746e-08)
(0.1957156 0.64609121 0.73774085)
(0.73421311 0.67891907 -6.3050611e-08)
(0.19608274 0.91697937 0.34741964)
(0.73421281 0.6789194 -2.1117798e-07)
(0.19592578 0.73471637 0.64946513)
(0.73421261 0.67891961 -1.1640226e-07)
(0.19569096 0.89179918 0.40792067)
(0.73421337 0.67891879 1.0451155e-08)
(0.19617232 0.80978882 0.55295433)
(0.73421379 0.67891834 -5.9732216e-08)
(0.19604625 0.10358987 0.97510769)
(0.73421377 0.67891836 -1.2782598e-08)
(0.19612959 0.93163847 0.30591329)
(0.73421297 0.67891922 2.7136008e-08)
(0.19529246 0.18885132 0.96239079)
(0.73421357 0.67891857 7.8140103e-08)
(0.19582709 0.84727364 0.49373995)
(0.73421258 0.67891965 -6.2646498e-08)
(0.19595184 0.95046424 0.24128946)
(0.86640616 -0.49933912 0.0008995393)
(0.19652891 -0.061215288 0.97858524)
(0.92543968 -0.37889378 0.00095247494)
(0.19679133 -0.046641114 0.97933538)
(0.96793928 -0.25118235 0.00099437277)
(0.19714281 -0.031040656 0.97988325)
(0.99286765 -0.11921716 0.0010438803)
(0.19758708 -0.01475465 0.98017429)
(0.99993133 0.01171918 3.4895273e-07)
(0.19611595 0.001431594 0.98057967)
(0.99413069 0.10818546 0.00026161975)
(0.19612933 0.013255856 0.98048843)
(0.99866976 0.051562717 -5.4195291e-05)
(0.19611497 0.0063163961 0.98056057)
(0.97063458 0.24055752 0.00077161953)
(0.19732028 0.029770587 0.97988694)
(0.98479508 0.17372006 3.3791177e-08)
(0.19612584 0.021272317 0.98034797)
(0.92973375 0.36823179 0.00071644786)
(0.19693625 0.045363342 0.97936627)
(0.95274215 0.30378017 9.1318416e-07)
(0.19712051 0.037485138 0.97966237)
(0.87177187 0.48991158 0.0006775779)
(0.19664029 0.060120724 0.97863072)
(0.90319821 0.42922372 -2.43269e-07)
(0.1967795 0.052780683 0.97902606)
(0.83777353 0.54601786 1.9661922e-07)
(0.19652717 0.066915059 0.97821237)
(0.77932724 0.62661705 -0.00035428778)
(0.19638283 0.076411522 0.97754543)
(0.99870338 -0.050907388 3.5740023e-07)
(0.19707389 -0.0062936276 0.98036844)
(0.98283232 -0.18450102 7.6765732e-07)
(0.1973502 -0.0228112 0.98006762)
(0.94912373 -0.31490338 -1.2754699e-07)
(0.1969533 -0.038787222 0.97964532)
(0.89854246 -0.43888659 9.4599528e-07)
(0.1966489 -0.053877221 0.97899257)
(0.83138908 -0.55569075 3.3396871e-07)
(0.19642622 -0.067979083 0.97815928)
(0.77208894 -0.63551445 -0.00024726929)
(0.19630641 -0.077485255 0.97747625)
(0.73421293 -0.67891927 1.9297514e-07)
(0.19609645 -0.23348045 0.95238283)
(0.73421354 -0.67891861 -2.3855259e-08)
(0.19542934 -0.16684718 0.96642092)
(0.73421353 -0.67891862 -2.89199e-07)
(0.19610222 -0.36432853 0.91038928)
(0.73421271 -0.67891951 2.8920771e-07)
(0.19623283 -0.30102247 0.93320853)
(0.73421338 -0.67891878 4.7036838e-07)
(0.19623457 -0.42615411 0.88311079)
(0.73421336 -0.67891881 4.366495e-07)
(0.19601641 -0.54077562 0.81800935)
(0.73421342 -0.67891873 5.3150805e-07)
(0.19610131 -0.48574816 0.85181747)
(0.73421327 -0.6789189 2.2266888e-07)
(0.19567116 -0.64349844 0.74001524)
(0.73421189 -0.6789204 -1.1985155e-06)
(0.19609288 -0.59579707 0.77882824)
(0.73421307 -0.67891912 5.7241148e-08)
(0.19585389 -0.73354378 0.65081087)
(0.73421396 -0.67891815 2.1814674e-07)
(0.19631283 -0.87224822 0.44793338)
(0.73421303 -0.67891916 2.772698e-08)
(0.19607196 -0.69309517 0.6936677)
(0.73421366 -0.67891848 2.8128208e-07)
(0.19607527 -0.8099156 0.55280304)
(0.73421296 -0.67891924 3.1124401e-08)
(0.1961422 -0.89710993 0.3958813)
(0.7342138 -0.67891833 8.0577708e-08)
(0.19592943 -0.93329112 0.30096402)
(0.73421288 -0.67891933 -4.4877245e-08)
(0.19602874 -0.77674181 0.59853563)
(0.73421186 -0.67892043 -7.5510389e-08)
(0.19610652 -0.91804383 0.34458346)
(0.73421255 -0.67891968 -8.6442111e-08)
(0.19594813 -0.84621177 0.4955098)
(0.73421324 -0.67891893 6.2646441e-08)
(0.19597427 -0.95241168 0.23346536)
(0.7342124 -0.67891984 6.7198892e-08)
(0.19609072 -0.098422517 0.97563386)
(0.7022229 -0.71195716 -2.1217428e-07)
(0.19629235 -0.96260897 0.18669035)
(-1 0 0)
(-0.5304305 -0.54225649 -0.65161444)
(-1 0 0)
(-0.53043897 0.62354213 -0.57430802)
(-1 0 0)
(-0.53045058 0.75661675 -0.38229999)
(-1 0 0)
(-0.52908815 0.7002171 0.47933469)
(-1 0 0)
(-0.52908818 0.44774034 0.72082889)
(-1 0 0)
(-0.52908815 -0.33963666 0.77763274)
(-1 0 0)
(-0.53045059 -0.75882393 -0.3779)
(-1 0 0)
(-0.5290882 -0.44774055 -0.72082875)
(-1 0 0)
(-0.53045407 0.33929492 -0.77685098)
(-1 0 0)
(-0.52908819 0.69742183 -0.48339267)
(-1 -0 0)
(-0.52908815 0.6274905 0.57124548)
(-1 0 0)
(-0.52908814 0.34414675 0.77564731)
(-1 0 0)
(-0.52908818 0.11936368 0.84012976)
(-1 0 0)
(-0.52908814 -0.44354728 0.72341658)
(-1 0 0)
(-0.52908815 -0.62416275 0.57487963)
(-1 0 -0)
(-0.53041382 -0.80367862 -0.26974405)
(-1 0 -0)
(-0.53043899 -0.62686657 -0.57067747)
(-1 0 0)
(-0.530399 -0.2337614 -0.8148819)
(-1 0 0)
(-0.52908818 0.11448381 -0.84080863)
(-1 0 0)
(-0.53043048 0.53846372 -0.65475211)
(-0.5290882 0.44354748 -0.72341641)
(-1 0 0)
(-0.53000043 0.8039237 0.2698263)
(-1 0 0)
(-0.52908814 0.54279299 0.65225878)
(-1 0 0)
(-0.52908813 0.0024641103 0.8485633)
(-1 0 0)
(-0.52908814 -0.53899628 0.65539968)
(-1 0 -0)
(-0.52908818 -0.70021708 -0.47933468)
(-1 0 0)
(-0.52908817 -0.11936397 -0.84012972)
(-1 0 -0)
(-0.53039897 0.22902576 -0.81622554)
(-1 0 0)
(-0.52908819 0.8330712 -0.16142507)
(-1 0 0)
(-0.52908815 0.75958571 0.37827937)
(-1 0 0)
(-0.52908815 -0.11448381 0.84080865)
(-0.52908814 -0.22924667 0.81701389)
(-1 0 0)
(-0.52908814 -0.75737631 0.38268377)
(-1 0 0)
(-0.52859676 -0.83337183 0.1614833)
(-1 0 -0)
(-0.53045405 -0.34380048 -0.77486756)
(-1 0 0)
(-0.53041382 0.8020987 -0.27440638)
(-1 0 0)
(-0.52908816 0.23398716 0.81566888)
(-1 -0 0)
(-0.53013211 -0.8022654 0.27446341)
(-1 0 -0)
(-0.5304591 -0.0024616237 -0.84770695)
(-1 -0 0)
(-0.52908816 -0.6974219 0.48339261)
(-1 -0 0)
(-0.5303209 0.84613674 -0.053031677)
(-1 0 0)
(-0.52931984 -0.84676089 0.053070795)
(-1 0 -0)
(-0.5290882 -0.83399447 -0.15658512)
(-1 0 0)
(-0.529618 0.83366958 0.15652412)
(-1 0 0)
(-0.52946919 0.84696174 0.048147655)
(-1 0 -0)
(-0.5293198 -0.8470548 -0.048152943)
(0.13608477 -0.9906972 1.1890577e-07)
(0.14113445 -0.84242506 -0.52000105)
)

// normal volume types

572
(
0
0
0
0
0
0
0
0
0
0
0
0
0
0
0
0
0
0
0
0
0
0
0
0
0
0
0
0
0
0
0
0
0
0
0
0
0
0
0
0
0
0
0
0
0
0
0
0
0
0
0
0
0
0
0
0
0
0
0
0
0
0
0
0
0
0
0
0
0
0
0
0
0
0
0
0
0
0
0
0
0
0
0
0
0
0
0
0
0
0
0
0
0
0
0
0
0
0
0
0
0
0
0
0
0
0
0
0
0
0
0
0
0
0
0
0
0
0
0
0
0
0
0
0
0
0
0
0
0
0
0
0
0
0
0
0
0
0
0
0
0
0
0
0
0
0
0
0
0
0
0
0
0
0
0
0
0
0
0
0
0
0
0
0
0
0
0
0
0
0
0
0
0
0
0
0
0
0
0
0
0
0
0
0
0
0
0
0
0
0
0
0
0
0
0
0
0
0
0
0
0
0
0
0
0
0
0
0
0
0
0
0
0
0
0
0
0
0
0
0
0
0
0
0
0
0
0
0
0
0
0
0
0
0
0
0
0
0
0
0
0
0
0
0
0
0
0
0
0
0
0
0
0
0
0
0
0
0
0
0
0
0
0
0
0
0
0
0
0
0
0
0
0
0
0
0
0
0
0
0
0
0
0
0
0
0
0
0
0
0
0
0
0
0
0
0
0
0
0
0
0
0
0
0
0
0
0
0
0
0
0
0
0
0
0
0
0
0
0
0
0
0
0
0
0
0
0
0
0
0
0
0
0
0
0
0
0
0
0
0
0
0
0
0
0
0
0
0
0
0
0
0
0
0
0
0
0
0
0
0
0
0
0
0
0
0
0
0
0
0
0
0
0
0
0
0
0
0
0
0
0
0
0
0
0
0
0
0
0
0
0
0
0
0
0
0
0
0
0
0
0
0
0
0
0
0
0
0
0
0
0
0
0
0
0
0
0
0
0
0
0
0
0
0
0
0
0
0
0
0
0
0
0
0
0
0
0
0
0
0
0
0
0
0
0
0
0
0
0
0
0
0
0
0
0
0
0
0
0
0
0
0
0
0
0
0
0
0
0
0
0
0
0
0
0
0
0
0
0
0
0
0
0
0
0
0
0
0
0
0
0
0
0
0
0
0
0
0
0
0
0
0
0
0
0
0
0
0
0
0
0
0
0
0
0
0
0
0
0
0
0
0
0
0
0
0
0
0
0
0
0
0
0
0
0
0
0
0
0
0
0
0
0
0
0
0
0
0
0
0
0
0
0
0
0
0
0
0
0
0
0
0
0
0
0
0
0
0
0
0
0
0
)

// normalDirections

290
(
2(1 -1)
2(1 -1)
2(1 -1)
2(1 -1)
2(1 -1)
2(1 -1)
2(1 -1)
2(1 -1)
2(1 -1)
2(1 -1)
2(1 -1)
2(1 -1)
2(1 -1)
2(1 -1)
2(1 -1)
2(1 -1)
2(1 -1)
2(1 -1)
2(1 -1)
2(1 -1)
2(1 -1)
2(1 -1)
2(1 -1)
2(1 -1)
2(1 -1)
2(1 -1)
2(1 -1)
2(1 -1)
2(1 -1)
2(1 -1)
2(1 -1)
2(1 -1)
2(1 -1)
2(1 -1)
2(1 -1)
2(1 -1)
2(1 -1)
2(1 -1)
2(1 -1)
2(1 -1)
2(1 -1)
2(1 -1)