/*--------------------------------*- C++ -*----------------------------------*\
| =========                 |                                                 |
| \\      /  F ield         | OpenFOAM: The Open Source CFD Toolbox           |
|  \\    /   O peration     | Version:  3.0.1                                 |
|   \\  /    A nd           | Web:      www.OpenFOAM.org                      |
|    \\/     M anipulation  |                                                 |
\*---------------------------------------------------------------------------*/
FoamFile
{
    version     2.0;
    format      ascii;
    class       polyBoundaryMesh;
    location    "constant/polyMesh";
    object      boundary;
}
// * * * * * * * * * * * * * * * * * * * * * * * * * * * * * * * * * * * * * //

7
(
    
    front
    {
        type            empty;
        nFaces          84169;
        startFace       166864;
    }
    back
    {
        type            empty;
        nFaces          84169;
        startFace       251033;
    }
    inlet
    {
        type            patch;
        nFaces          36;
        startFace       335202;
    }
    outlet
    {
        type            patch;
        nFaces          36;
        startFace       335238;
    }
    floor
    {
        type            patch;
        nFaces          1310;
        startFace       335274;
    }
    wall
    {
        type            patch;
        nFaces          998;
        startFace       336584;
    }
    body
    {
        type            wall;
        nFaces          1387;
        startFace       337582;
    }
)

// ************************************************************************* //
