/*--------------------------------*- C++ -*----------------------------------*\
| =========                 |                                                 |
| \\      /  F ield         | OpenFOAM: The Open Source CFD Toolbox           |
|  \\    /   O peration     | Version:  3.0.1                                 |
|   \\  /    A nd           | Web:      www.OpenFOAM.org                      |
|    \\/     M anipulation  |                                                 |
\*---------------------------------------------------------------------------*/
FoamFile
{
    version     2.0;
    format      ascii;
    class       polyBoundaryMesh;
    location    "constant/polyMesh";
    object      boundary;
}
// * * * * * * * * * * * * * * * * * * * * * * * * * * * * * * * * * * * * * //

6
(
    defaultFaces
    {
        type            empty;
        inGroups        1(empty);
        nFaces          0;
        startFace       2514095;
    }
    body
    {
        type            wall;
        inGroups        1(wall);
        nFaces          16716;
        startFace       2514095;
    }
    floor
    {
        type            wall;
        inGroups        1(wall);
        nFaces          23678;
        startFace       2530811;
    }
    inlet
    {
        type            wall;
        inGroups        1(wall);
        nFaces          1822;
        startFace       2554489;
    }
    outlet
    {
        type            wall;
        inGroups        1(wall);
        nFaces          1849;
        startFace       2556311;
    }
    wall
    {
        type            wall;
        inGroups        1(wall);
        nFaces          66551;
        startFace       2558160;
    }
)

// ************************************************************************* //
