/*--------------------------------*- C++ -*----------------------------------*\
| =========                 |                                                 |
| \\      /  F ield         | OpenFOAM: The Open Source CFD Toolbox           |
|  \\    /   O peration     | Version:  3.0.1                                 |
|   \\  /    A nd           | Web:      www.OpenFOAM.org                      |
|    \\/     M anipulation  |                                                 |
\*---------------------------------------------------------------------------*/
FoamFile
{
    version     2.0;
    format      ascii;
    class       polyBoundaryMesh;
    location    "constant/polyMesh";
    object      boundary;
}
// * * * * * * * * * * * * * * * * * * * * * * * * * * * * * * * * * * * * * //

6
(
    defaultFaces
    {
        type            wall;
        inGroups        1(wall);
        nFaces          0;
        startFace       1430750;
    }
    body
    {
        type            wall;
        inGroups        1(wall);
        nFaces          22338;
        startFace       1430750;
    }
    floor
    {
        type            wall;
        inGroups        1(wall);
        nFaces          17512;
        startFace       1453088;
    }
    inlet
    {
        type            wall;
        inGroups        1(wall);
        nFaces          764;
        startFace       1470600;
    }
    outlet
    {
        type            wall;
        inGroups        1(wall);
        nFaces          764;
        startFace       1471364;
    }
    wall
    {
        type            wall;
        inGroups        1(wall);
        nFaces          29906;
        startFace       1472128;
    }
)

// ************************************************************************* //
