/*--------------------------------*- C++ -*----------------------------------*\
| =========                 |                                                 |
| \\      /  F ield         | OpenFOAM: The Open Source CFD Toolbox           |
|  \\    /   O peration     | Version:  3.0.1                                 |
|   \\  /    A nd           | Web:      www.OpenFOAM.org                      |
|    \\/     M anipulation  |                                                 |
\*---------------------------------------------------------------------------*/
FoamFile
{
    version     2.0;
    format      ascii;
    class       polyBoundaryMesh;
    location    "constant/polyMesh";
    object      boundary;
}
// * * * * * * * * * * * * * * * * * * * * * * * * * * * * * * * * * * * * * //

6
(
    defaultFaces
    {
        type            empty;
        inGroups        1(empty);
        nFaces          0;
        startFace       14484349;
    }
    body
    {
        type            wall;
        inGroups        1(wall);
        nFaces          248719;
        startFace       14484349;
    }
    floor
    {
        type            wall;
        inGroups        1(wall);
        nFaces          59252;
        startFace       14733068;
    }
    inlet
    {
        type            wall;
        inGroups        1(wall);
        nFaces          1845;
        startFace       14792320;
    }
    outlet
    {
        type            wall;
        inGroups        1(wall);
        nFaces          2064;
        startFace       14794165;
    }
    wall
    {
        type            wall;
        inGroups        1(wall);
        nFaces          208956;
        startFace       14796229;
    }
)

// ************************************************************************* //
