/*--------------------------------*- C++ -*----------------------------------*\
| =========                 |                                                 |
| \\      /  F ield         | OpenFOAM: The Open Source CFD Toolbox           |
|  \\    /   O peration     | Version:  3.0.1                                 |
|   \\  /    A nd           | Web:      www.OpenFOAM.org                      |
|    \\/     M anipulation  |                                                 |
\*---------------------------------------------------------------------------*/
FoamFile
{
    version     2.0;
    format      ascii;
    class       polyBoundaryMesh;
    location    "constant/polyMesh";
    object      boundary;
}
// * * * * * * * * * * * * * * * * * * * * * * * * * * * * * * * * * * * * * //

7
(
    front
    {
        type            wall;
        inGroups        1(wall);
        nFaces          84169;
        startFace       3217274;
    }
    back
    {
        type            wall;
        inGroups        1(wall);
        nFaces          84175;
        startFace       3301443;
    }
    inlet
    {
        type            patch;
        nFaces          108;
        startFace       3385618;
    }
    outlet
    {
        type            patch;
        nFaces          108;
        startFace       3385726;
    }
    floor
    {
        type            wall;
        inGroups        1(wall);
        nFaces          15618;
        startFace       3385834;
    }
    wall
    {
        type            patch;
        nFaces          6042;
        startFace       3401452;
    }
    body
    {
        type            wall;
        inGroups        1(wall);
        nFaces          38664;
        startFace       3407494;
    }
)

// ************************************************************************* //
