/*--------------------------------*- C++ -*----------------------------------*\
| =========                 |                                                 |
| \\      /  F ield         | OpenFOAM: The Open Source CFD Toolbox           |
|  \\    /   O peration     | Version:  2.3.0                                 |
|   \\  /    A nd           | Web:      www.OpenFOAM.org                      |
|    \\/     M anipulation  |                                                 |
\*---------------------------------------------------------------------------*/
FoamFile
{
    version     2.0;
    format      ascii;
    class       dictionary;
    object      blockMeshDict;
}
// * * * * * * * * * * * * * * * * * * * * * * * * * * * * * * * * * * * * * //

 convertToMeters 1;

vertices
(
        ( -11.0 -1.8954242741 -1.721360002 )
        ( 26.0 -1.8954242741 -1.721360002 )
        ( 26.0 1.89662 -1.721360002 )
        ( -11.0 1.89662 -1.721360002 )
        ( -11.0 -1.8954242741 1.8965902559 )
        ( 26.0 -1.8954242741 1.8965902559 )
        ( 26.0 1.89662 1.8965902559 )
        ( -11.0 1.89662 1.8965902559 )

);

blocks
(
    hex (0 1 2 3 4 5 6 7) (370 39 36) simpleGrading (1 1 1)
);

edges
(
);

boundary
(

);

// ************************************************************************* //
