/*--------------------------------*- C++ -*----------------------------------*\
| =========                 |                                                 |
| \\      /  F ield         | OpenFOAM: The Open Source CFD Toolbox           |
|  \\    /   O peration     | Version:  2.3.0                                 |
|   \\  /    A nd           | Web:      www.OpenFOAM.org                      |
|    \\/     M anipulation  |                                                 |
\*---------------------------------------------------------------------------*/
FoamFile
{
    version     2.0;
    format      ascii;
    class       dictionary;
    object      blockMeshDict;
}
// * * * * * * * * * * * * * * * * * * * * * * * * * * * * * * * * * * * * * //

 convertToMeters 1;

vertices
(
        ( -10.0 0.0 -0.721360002 )
        ( 25.0 0.0 -0.721360002 )
        ( 25.0 0.1 -0.721360002 )
        ( -10.0 0.1 -0.721360002 )
        ( -10.0 0.0 0.8965902559 )
        ( 25.0 0.0 0.8965902559 )
        ( 25.0 0.1 0.8965902559 )
        ( -10.0 0.1 0.8965902559 )

);

blocks
(
    hex (0 1 2 3 4 5 6 7) (700 3 36) simpleGrading (1 1 1)
);

edges
(
);

boundary
(
    front
    {
        type empty;
        faces
        (

            (1 5 4 0)
        );
    }
    back
    {
        type empty;
        faces
        (

            (3 7 6 2)
        );
    }
    inlet
    {
        type patch;
        faces
        (
            (0 4 7 3)
        );
    }
    outlet
    {
        type patch;
        faces
        (
            (2 6 5 1)
        );
    }
    floor
    {
        type wall;
        faces
        (
            (0 3 2 1)
        );
    }
    wall
    {
        type patch;
        faces
        (
            (4 5 6 7)
        );
    }
);

// ************************************************************************* //
