/*--------------------------------*- C++ -*----------------------------------*\
| =========                 |                                                 |
| \\      /  F ield         | OpenFOAM: The Open Source CFD Toolbox           |
|  \\    /   O peration     | Version:  2.4.0                                 |
|   \\  /    A nd           | Web:      www.OpenFOAM.org                      |
|    \\/     M anipulation  |                                                 |
\*---------------------------------------------------------------------------*/
FoamFile
{
    version     2.0;
    format      ascii;
    class       dictionary;
    location    "system";
    object      fvSchemes;
}
// * * * * * * * * * * * * * * * * * * * * * * * * * * * * * * * * * * * * * //

ddtSchemes
{
    default         Euler;
}

gradSchemes
{
    default         cellLimited Gauss linear 1.0;
}

divSchemes
{
    default         none;

    div(phi,U)     bounded Gauss linearUpwindV Gauss linear;
    div(phid,p)     bounded Gauss linearUpwind Gauss linear;
    div(((rho*nuEff)*dev2(T(grad(U))))) Gauss linear;
    div(phi,e)      bounded Gauss linearUpwind Gauss linear;
    div(phi,omega) bounded Gauss linearUpwind Gauss linear;
    div(phi,k)     bounded Gauss linearUpwind Gauss linear;
    div(phi,Ekp)   bounded Gauss linearUpwind Gauss linear;
	div(phiv,p)     bounded Gauss linearUpwind Gauss linear;
	div(phi,K)     bounded Gauss linearUpwind Gauss linear;
}

laplacianSchemes
{
    default         Gauss linear corrected;
}

interpolationSchemes
{
    default         linear;
}

snGradSchemes
{
    default         corrected;
}

wallDist
{
    method meshWave;
}

// ************************************************************************* //
