/*--------------------------------*- C++ -*----------------------------------*\
| =========                 |                                                 |
| \\      /  F ield         | OpenFOAM: The Open Source CFD Toolbox           |
|  \\    /   O peration     | Version:  2.4.0                                 |
|   \\  /    A nd           | Web:      www.OpenFOAM.org                      |
|    \\/     M anipulation  |                                                 |
\*---------------------------------------------------------------------------*/
FoamFile
{
    version     2.0;
    format      ascii;
    class       dictionary;
    location    "system";
    object      fvSolution;
}
// * * * * * * * * * * * * * * * * * * * * * * * * * * * * * * * * * * * * * //

solvers
{
    p
    {
        solver          GAMG;
        tolerance       1e-8;
        relTol          0.05;
        smoother        DIC;
        cacheAgglomeration on;
        nCellsInCoarsestLevel 20;
        agglomerator    faceAreaPair;
        mergeLevels     1;
    }
    "(k|omega|U|e)"
    {
        solver          GAMG;
        tolerance       1e-8;
        relTol          0.1;
        smoother        DILU;
        nPreSweeps      0;
        nPostSweeps     2;
        nFinestSweeps   2;
        cacheAgglomeration true;
        nCellsInCoarsestLevel 20;
        agglomerator    faceAreaPair;
        mergeLevels     1;
    }
/*    p*/
/*    {*/
/*        solver          GAMG;*/
/*        tolerance       1e-08;*/
/*        relTol          0.05;*/
/*        smoother        GaussSeidel;*/
/*        cacheAgglomeration on;*/
/*        nCellsInCoarsestLevel 20;*/
/*        agglomerator    faceAreaPair;*/
/*        mergeLevels     1;*/
/*    }*/

/*    U*/
/*    {*/
/*        solver          smoothSolver;*/
/*        smoother        GaussSeidel;*/
/*        nSweeps         2;*/
/*        tolerance       1e-07;*/
/*        relTol          0.1;*/
/*    }*/

/*    e*/
/*    {*/
/*        solver          smoothSolver;*/
/*        smoother        symGaussSeidel;*/
/*        tolerance       1e-07;*/
/*        relTol          0.1;*/
/*    }*/

/*    "(k|epsilon|omega)"*/
/*    {*/
/*        $U;*/
/*        tolerance       1e-07;*/
/*        relTol          0.1;*/
/*    }*/


}

SIMPLE
{
    nNonOrthogonalCorrectors 0;
    rhoMin          rhoMin [ 1 -3 0 0 0 ] 0;
    rhoMax          rhoMax [ 1 -3 0 0 0 ] 0.5;
    consistent yes;
    residualControl
    {
        p               1e-07;
        U               1e-07;
        e               1e-07;

        // possibly check turbulence fields
        "(k|epsilon|omega)" 1e-7;
    }
}

potentialFlow
{
	nNonOrthogonalCorrectors 10;
}

relaxationFactors
{
    fields
    {
        p               0.3;
        rho             0.05;
    }
    equations
    {
        U               0.7;
        "(k|epsilon|omega)"   0.7;
        e               0.8;
    }
}


// ************************************************************************* //
