/*--------------------------------*- C++ -*----------------------------------*\
| =========                 |                                                 |
| \\      /  F ield         | OpenFOAM: The Open Source CFD Toolbox           |
|  \\    /   O peration     | Version:  3.0.1                                 |
|   \\  /    A nd           | Web:      www.OpenFOAM.org                      |
|    \\/     M anipulation  |                                                 |
\*---------------------------------------------------------------------------*/
FoamFile
{
    version     2.0;
    format      ascii;
    class       volScalarField;
    location    "0";
    object      T;
}
// * * * * * * * * * * * * * * * * * * * * * * * * * * * * * * * * * * * * * //

dimensions      [0 0 0 1 0 0 0];

internalField   uniform 300;

boundaryField
{
    defaultFaces
    {
        type            zeroGradient;
    }
    body
    {
        type            zeroGradient;
    }
    floor
    {
        type            slip;
    }
    inlet
    {
	type	totalTemperature;
	T0	uniform 300;
	value 	uniform 300;
	gamma 		1.4;
    }
    outlet
    {
        type            zeroGradient;
    }
    wall
    {
        type            slip;
    }
}


// ************************************************************************* //
