/*--------------------------------*- C++ -*----------------------------------*\
| =========                 |                                                 |
| \\      /  F ield         | OpenFOAM: The Open Source CFD Toolbox           |
|  \\    /   O peration     | Version:  2.4.0                                 |
|   \\  /    A nd           | Web:      www.OpenFOAM.org                      |
|    \\/     M anipulation  |                                                 |
\*---------------------------------------------------------------------------*/
FoamFile
{
    version     2.0;
    format      ascii;
    class       volVectorField;
    object      U;
}
// * * * * * * * * * * * * * * * * * * * * * * * * * * * * * * * * * * * * * //

dimensions      [0 1 -1 0 0 0 0];

internalField   uniform (134.112 0 0);

boundaryField
{
    defaultFaces
    {
        type            fixedValue;
        value           uniform (0 0 0);
    }
    inlet
    {
        type            inletOutlet;
        inletValue           uniform (134.112 0 0);
	value		$internalField;
    }
    outlet
    {
        type            inletOutlet;
	inletValue	uniform (0 0 0);
	value		uniform (0 0 0);
    }
    wall
    {
        type            slip;
 //      value           uniform (44.7 0 0);
    }
    floor
    {
        type            slip;
 //      value           uniform (44.7 0 0);
    }
    body
    {
        type            fixedValue;
       value           uniform (0 0 0);
    }
    symmetry
    {
        type            slip;
    }
}

// ************************************************************************* //
